*SOILS: Suelos Argentina

*WI_PLAR001  WISE        SIL     230 WISE DATABASE, SOIL AR001
@SITE        COUNTRY          LAT     LONG SCS Family
 -99         Argentina    -35.000  -58.450 Mollic Planosol (PLm)
@ SCOM  SALB  SLU1  SLDR  SLRO  SLNF  SLPF  SMHB  SMPX  SMKE
     G  0.13  9.60  0.60 75.00  1.00  1.00 SA001 SA001 SA001
@  SLB  SLMH  SLLL  SDUL  SSAT  SRGF  SSKS  SBDM  SLOC  SLCL  SLSI  SLCF  SLNI  SLHW  SLHB  SCEC  SADC
    15    Ap 0.148 0.337 0.558  1.00  1.72  1.05  2.50 20.00 57.00 -99.0  0.27  6.10 -99.0 17.10 -99.0
    35   A12 0.148 0.337 0.547  0.61  1.56  1.09  1.92 20.00 58.00 -99.0  0.17  5.80 -99.0 17.00 -99.0
    55    A2 0.096 0.200 0.523  0.41  9.55  1.18  0.45 15.00 63.00 -99.0  0.06  6.20 -99.0  7.80 -99.0
   140  IIB2 0.225 0.349 0.488  0.14  0.60  1.31  0.43 40.00 46.00 -99.0  0.08  6.70 -99.0 30.40 -99.0
   180 IIIB3 0.241 0.345 0.470  0.04  0.52  1.36  0.14 43.00 45.00 -99.0  0.01  7.30 -99.0 33.20 -99.0
   230  IIIC 0.240 0.351 0.460  0.02  0.39  1.39  0.12 38.00 53.00 -99.0  0.01  7.40 -99.0 32.50 -99.0
@  SLB  SLPX  SLPT  SLPO CACO3  SLAL  SLFE  SLMN  SLBS  SLPA  SLPB  SLKE  SLMG  SLNA  SLSU  SLEC  SLCA
    15 -99.0 -99.0 -99.0 -99.0 -99.0 -99.0 -99.0  78.0 -99.0 -99.0   2.0   2.1   0.4 -99.0 -99.0   8.8
    35 -99.0 -99.0 -99.0 -99.0 -99.0 -99.0 -99.0  75.0 -99.0 -99.0   0.9   2.7   0.4 -99.0 -99.0   8.7
    55 -99.0 -99.0 -99.0 -99.0 -99.0 -99.0 -99.0  92.0 -99.0 -99.0   0.4   0.7   0.7 -99.0 -99.0   5.4
   140 -99.0 -99.0 -99.0 -99.0 -99.0 -99.0 -99.0  88.0 -99.0 -99.0   2.0   5.1   1.7 -99.0 -99.0  18.0
   180 -99.0 -99.0 -99.0 -99.0 -99.0 -99.0 -99.0  98.0 -99.0 -99.0   2.4   4.5   2.3 -99.0 -99.0  23.3
   230 -99.0 -99.0 -99.0 -99.0 -99.0 -99.0 -99.0  95.0 -99.0 -99.0   1.8   3.8   2.3 -99.0 -99.0  23.1

*WI_PHAR002  WISE        L       140 WISE DATABASE, SOIL AR002
@SITE        COUNTRY          LAT     LONG SCS Family
 -99         Argentina    -37.850  -58.267 Luvic Phaeozem (PHl)
@ SCOM  SALB  SLU1  SLDR  SLRO  SLNF  SLPF  SMHB  SMPX  SMKE
    BK  0.09  9.68  0.40 75.00  1.00  1.00 SA001 SA001 SA001
@  SLB  SLMH  SLLL  SDUL  SSAT  SRGF  SSKS  SBDM  SLOC  SLCL  SLSI  SLCF  SLNI  SLHW  SLHB  SCEC  SADC
    15    A1 0.149 0.337 0.533  1.00  1.37  1.11  3.28 21.00 40.00 -99.0  0.29  6.70 -99.0 21.40 -99.0
    28   A12 0.162 0.341 0.475  0.65  0.67  1.30  1.47 22.00 36.00 -99.0  0.12  6.70 -99.0 18.60 -99.0
    38    B1 0.229 0.362 0.472  0.52  0.37  1.35  0.62 38.00 33.00 -99.0  0.07  7.00 -99.0 24.40 -99.0
    84   B2t 0.150 0.247 0.473  0.30  2.94  1.35  0.34 28.00 43.00 -99.0  0.05  7.20 -99.0 22.70 -99.0
   110    B3 0.114 0.252 0.430  0.14  1.96  1.45  0.09 23.00 38.00 -99.0  0.01  7.50 -99.0 18.40 -99.0
   140     C 0.100 0.244 0.423  0.08  2.12  1.47  0.04 16.00 37.00 -99.0  0.00  7.50 -99.0 15.10 -99.0
@  SLB  SLPX  SLPT  SLPO CACO3  SLAL  SLFE  SLMN  SLBS  SLPA  SLPB  SLKE  SLMG  SLNA  SLSU  SLEC  SLCA
    15 -99.0 -99.0 -99.0 -99.0 -99.0 -99.0 -99.0  72.0 -99.0 -99.0   2.5   2.6   0.3 -99.0 -99.0  10.1
    28 -99.0 -99.0 -99.0 -99.0 -99.0 -99.0 -99.0  85.0 -99.0 -99.0   1.1   3.5   0.3 -99.0 -99.0  10.9
    38 -99.0 -99.0 -99.0 -99.0 -99.0 -99.0 -99.0  94.0 -99.0 -99.0   1.6   7.2   0.5 -99.0 -99.0  13.7
    84 -99.0 -99.0 -99.0 -99.0 -99.0 -99.0 -99.0  96.0 -99.0 -99.0   1.7   7.6   0.5 -99.0 -99.0  12.0
   110 -99.0 -99.0 -99.0 -99.0 -99.0 -99.0 -99.0  98.0 -99.0 -99.0   1.5   6.1   0.5 -99.0 -99.0   9.9
   140 -99.0 -99.0 -99.0 -99.0 -99.0 -99.0 -99.0 100.0 -99.0 -99.0   1.3   5.9   0.5 -99.0 -99.0   7.4

*WI_PHAR003  WISE        SIL      70 WISE DATABASE, SOIL AR003
@SITE        COUNTRY          LAT     LONG SCS Family
 -99         Argentina    -37.850  -58.267 Luvic Phaeozem (PHl)
@ SCOM  SALB  SLU1  SLDR  SLRO  SLNF  SLPF  SMHB  SMPX  SMKE
    BK  0.09  9.60  0.40 75.00  1.00  1.00 SA001 SA001 SA001
@  SLB  SLMH  SLLL  SDUL  SSAT  SRGF  SSKS  SBDM  SLOC  SLCL  SLSI  SLCF  SLNI  SLHW  SLHB  SCEC  SADC
    10    Ap 0.148 0.337 0.573  1.00  1.94  1.00  3.53 20.00 54.00 -99.0  0.29  7.00 -99.0 28.70 -99.0
    24    A1 0.149 0.337 0.537  0.71  1.42  1.10  3.22 23.00 43.00 -99.0  0.26  7.10 -99.0 28.20 -99.0
    34    B1 0.172 0.350 0.511  0.56  0.80  1.21  2.21 30.00 34.00 -99.0  0.19  7.30 -99.0 28.20 -99.0
    70   B2t 0.216 0.342 0.496  0.35  0.77  1.28  0.99 40.00 35.00 -99.0  0.10  7.50 -99.0 34.30 -99.0
@  SLB  SLPX  SLPT  SLPO CACO3  SLAL  SLFE  SLMN  SLBS  SLPA  SLPB  SLKE  SLMG  SLNA  SLSU  SLEC  SLCA
    10 -99.0 -99.0 -99.0 -99.0 -99.0 -99.0 -99.0  78.0 -99.0 -99.0   2.0   2.8   0.4 -99.0 -99.0  17.2
    24 -99.0 -99.0 -99.0 -99.0 -99.0 -99.0 -99.0  80.0 -99.0 -99.0   1.8   2.3   0.5 -99.0 -99.0  17.8
    34 -99.0 -99.0 -99.0 -99.0 -99.0 -99.0 -99.0  83.0 -99.0 -99.0   1.3   1.5   0.4 -99.0 -99.0  20.2
    70 -99.0 -99.0 -99.0 -99.0 -99.0 -99.0 -99.0  89.0 -99.0 -99.0   1.4   2.2   0.6 -99.0 -99.0  26.4

*WI_PHAR010  WISE        SIL     140 WISE DATABASE, SOIL AR010
@SITE        COUNTRY          LAT     LONG SCS Family
 -99         Argentina    -34.100  -60.417 Luvic Phaeozem (PHl)
@ SCOM  SALB  SLU1  SLDR  SLRO  SLNF  SLPF  SMHB  SMPX  SMKE
    BN  0.13  9.68  0.60 75.00  1.00  1.00 SA001 SA001 SA001
@  SLB  SLMH  SLLL  SDUL  SSAT  SRGF  SSKS  SBDM  SLOC  SLCL  SLSI  SLCF  SLNI  SLHW  SLHB  SCEC  SADC
    14    Ap 0.148 0.337 0.544  1.00  1.52  1.10  2.26 21.00 64.00 -99.0  0.23  6.20 -99.0 22.80 -99.0
    34   A12 0.148 0.337 0.520  0.62  1.21  1.16  1.92 25.00 63.00 -99.0  0.19  6.20 -99.0 22.30 -99.0
    45    A3 0.112 0.263 0.510  0.45  3.36  1.21  0.92 27.00 58.00 -99.0  0.09  6.50 -99.0 20.50 -99.0
    58    B1 0.196 0.338 0.503  0.36  0.90  1.26  0.54 32.00 53.00 -99.0  0.05  6.60 -99.0 19.40 -99.0
    97   B2t 0.231 0.354 0.485  0.21  0.53  1.31  0.51 40.00 48.00 -99.0  0.05  6.70 -99.0 28.50 -99.0
   140    B3 0.248 0.352 0.500  0.09  0.77  1.25  0.24 26.00 54.00 -99.0  0.02  6.90 -99.0 23.10 -99.0
@  SLB  SLPX  SLPT  SLPO CACO3  SLAL  SLFE  SLMN  SLBS  SLPA  SLPB  SLKE  SLMG  SLNA  SLSU  SLEC  SLCA
    14 -99.0 -99.0 -99.0 -99.0 -99.0 -99.0 -99.0  91.0 -99.0 -99.0   2.1   2.2   0.4 -99.0 -99.0  16.1
    34 -99.0 -99.0 -99.0 -99.0 -99.0 -99.0 -99.0  86.0 -99.0 -99.0   1.5   2.4   0.5 -99.0 -99.0  14.8
    45 -99.0 -99.0 -99.0 -99.0 -99.0 -99.0 -99.0  79.0 -99.0 -99.0   1.2   2.8   0.5 -99.0 -99.0  11.7
    58 -99.0 -99.0 -99.0 -99.0 -99.0 -99.0 -99.0  84.0 -99.0 -99.0   0.9   3.8   0.5 -99.0 -99.0  11.1
    97 -99.0 -99.0 -99.0 -99.0 -99.0 -99.0 -99.0  87.0 -99.0 -99.0   1.5   5.5   0.5 -99.0 -99.0  17.3
   140 -99.0 -99.0 -99.0 -99.0 -99.0 -99.0 -99.0  92.0 -99.0 -99.0   1.6   4.3   0.5 -99.0 -99.0  14.9

*WI_PHAR013  WISE        SICL    150 WISE DATABASE, SOIL AR013
@SITE        COUNTRY          LAT     LONG SCS Family
 -99         Argentina    -33.754  -60.808 Gleyic Phaeozem (PHg)
@ SCOM  SALB  SLU1  SLDR  SLRO  SLNF  SLPF  SMHB  SMPX  SMKE
    BN  0.13 11.04  0.05 75.00  1.00  1.00 SA001 SA001 SA001
@  SLB  SLMH  SLLL  SDUL  SSAT  SRGF  SSKS  SBDM  SLOC  SLCL  SLSI  SLCF  SLNI  SLHW  SLHB  SCEC  SADC
    14    A1 0.211 0.358 0.490  1.00  0.53  1.29  1.29 38.00 56.00 -99.0  0.14  6.00 -99.0 25.00 -99.0
    25    A2 0.172 0.286 0.462  0.68  1.37  1.37  0.69 33.00 62.00 -99.0  0.07  6.40 -99.0 19.90 -99.0
    56  B21t 0.224 0.368 0.458  0.44  0.25  1.39  0.46 52.00 45.00 -99.0  0.05  6.70 -99.0 32.80 -99.0
    75  B22t 0.263 0.369 0.452  0.27  0.22  1.41  0.27 48.00 47.00 -99.0  0.03  6.90 -99.0 27.50 -99.0
   110  B23t 0.253 0.355 0.452  0.16  0.31  1.41  0.22 41.00 53.00 -99.0  0.03  7.80 -99.0 22.60 -99.0
   150    B3 0.257 0.359 0.479  0.07  0.44  1.34  0.22 30.00 58.00 -99.0  0.03  8.20 -99.0 17.90 -99.0
@  SLB  SLPX  SLPT  SLPO CACO3  SLAL  SLFE  SLMN  SLBS  SLPA  SLPB  SLKE  SLMG  SLNA  SLSU  SLEC  SLCA
    14 -99.0 -99.0 -99.0 -99.0 -99.0 -99.0 -99.0  78.0 -99.0 -99.0   3.0   4.3   0.4 -99.0 -99.0  11.8
    25 -99.0 -99.0 -99.0 -99.0 -99.0 -99.0 -99.0  91.0 -99.0 -99.0   2.3   3.8   0.4 -99.0 -99.0  11.5
    56 -99.0 -99.0 -99.0 -99.0 -99.0 -99.0 -99.0  96.0 -99.0 -99.0   3.0   7.0   0.6 -99.0 -99.0  20.7
    75 -99.0 -99.0 -99.0 -99.0 -99.0 -99.0 -99.0  98.0 -99.0 -99.0   2.5   6.3   0.7 -99.0 -99.0  17.6
   110 -99.0 -99.0 -99.0 -99.0 -99.0 -99.0 -99.0 -99.0 -99.0 -99.0   0.9 -99.0 -99.0 -99.0 -99.0 -99.0
   150 -99.0 -99.0 -99.0 -99.0 -99.0 -99.0 -99.0 -99.0 -99.0 -99.0   2.5 -99.0   1.2 -99.0 -99.0 -99.0

*WI_PHAR015  WISE        SIL     200 WISE DATABASE, SOIL AR015
@SITE        COUNTRY          LAT     LONG SCS Family
 -99         Argentina    -33.864  -60.667 Luvic Phaeozem (PHl)
@ SCOM  SALB  SLU1  SLDR  SLRO  SLNF  SLPF  SMHB  SMPX  SMKE
    BN  0.13  9.84  0.60 73.00  1.00  1.00 SA001 SA001 SA001
@  SLB  SLMH  SLLL  SDUL  SSAT  SRGF  SSKS  SBDM  SLOC  SLCL  SLSI  SLCF  SLNI  SLHW  SLHB  SCEC  SADC
    13    Ap 0.150 0.345 0.514  1.00  1.01  1.18  1.69 23.00 65.00 -99.0  0.16  5.90 -99.0 21.10 -99.0
    25   A12 0.147 0.343 0.508  0.68  0.98  1.20  1.48 23.00 65.00 -99.0  0.14  6.10 -99.0 20.30 -99.0
    34    B1 0.152 0.282 0.506  0.55  2.25  1.25  0.87 30.00 57.00 -99.0  0.11  6.20 -99.0 18.60 -99.0
    95   B2t 0.276 0.396 0.476  0.28  0.18  1.34  0.64 44.00 48.00 -99.0  0.09  6.30 -99.0 32.00 -99.0
   160    B3 0.090 0.202 0.501  0.08  8.03  1.25  0.24 17.00 66.00 -99.0  0.04  6.40 -99.0 24.10 -99.0
   200     C 0.090 0.200 0.543  0.03 10.85  1.13  0.15  7.00 70.00 -99.0  0.02  7.30 -99.0 25.30 -99.0
@  SLB  SLPX  SLPT  SLPO CACO3  SLAL  SLFE  SLMN  SLBS  SLPA  SLPB  SLKE  SLMG  SLNA  SLSU  SLEC  SLCA
    13 -99.0 -99.0 -99.0 -99.0 -99.0 -99.0 -99.0  84.0 -99.0 -99.0   1.6   3.1   0.6 -99.0 -99.0  12.5
    25 -99.0 -99.0 -99.0 -99.0 -99.0 -99.0 -99.0  88.0 -99.0 -99.0   1.2   3.3   0.5 -99.0 -99.0  12.9
    34 -99.0 -99.0 -99.0 -99.0 -99.0 -99.0 -99.0  92.0 -99.0 -99.0   1.2   3.5   0.6 -99.0 -99.0  11.8
    95 -99.0 -99.0 -99.0 -99.0 -99.0 -99.0 -99.0  88.0 -99.0 -99.0   2.4   5.8   0.6 -99.0 -99.0  19.3
   160 -99.0 -99.0 -99.0 -99.0 -99.0 -99.0 -99.0  95.0 -99.0 -99.0   2.2   5.3   0.5 -99.0 -99.0  14.9
   200 -99.0 -99.0 -99.0   0.1 -99.0 -99.0 -99.0  97.0 -99.0 -99.0   2.0   3.9   0.6 -99.0 -99.0  18.1

*WI_PHAR017  WISE        SICL    220 WISE DATABASE, SOIL AR017
@SITE        COUNTRY          LAT     LONG SCS Family
 -99         Argentina    -33.681  -60.053 Luvic Phaeozem (PHl)
@ SCOM  SALB  SLU1  SLDR  SLRO  SLNF  SLPF  SMHB  SMPX  SMKE
    BN  0.13 10.32  0.40 73.00  1.00  1.00 SA001 SA001 SA001
@  SLB  SLMH  SLLL  SDUL  SSAT  SRGF  SSKS  SBDM  SLOC  SLCL  SLSI  SLCF  SLNI  SLHW  SLHB  SCEC  SADC
    13   A11 0.148 0.337 0.465  1.00  0.55  1.33  2.48 29.00 66.00 -99.0  0.24  5.90 -99.0 24.40 -99.0
    27   A12 0.186 0.362 0.470  0.67  0.36  1.33  1.70 32.00 64.00 -99.0  0.17  6.30 -99.0 25.10 -99.0
    40    B1 0.188 0.317 0.390  0.51  0.23  1.56  0.99 34.00 61.00 -99.0  0.10  6.40 -99.0 23.10 -99.0
   131   B2t 0.212 0.302 0.318  0.18  0.02  1.76  0.76 57.00 40.00 -99.0  0.07  6.90 -99.0 38.50 -99.0
   198    B3 0.207 0.337 0.357  0.04  0.03  1.67  0.21 39.00 57.00 -99.0  0.02  7.40 -99.0 34.20 -99.0
   220     C 0.214 0.359 0.376  0.02  0.03  1.60  0.08 26.00 66.00 -99.0  0.01  8.30 -99.0 27.60 -99.0
@  SLB  SLPX  SLPT  SLPO CACO3  SLAL  SLFE  SLMN  SLBS  SLPA  SLPB  SLKE  SLMG  SLNA  SLSU  SLEC  SLCA
    13 -99.0 -99.0 -99.0 -99.0 -99.0 -99.0 -99.0  82.0 -99.0 -99.0   1.8   3.0   0.4 -99.0 -99.0  14.9
    27 -99.0 -99.0 -99.0 -99.0 -99.0 -99.0 -99.0  83.0 -99.0 -99.0   1.5   3.4   0.4 -99.0 -99.0  15.6
    40 -99.0 -99.0 -99.0 -99.0 -99.0 -99.0 -99.0  86.0 -99.0 -99.0   1.2   3.2   0.6 -99.0 -99.0  14.8
   131 -99.0 -99.0 -99.0 -99.0 -99.0 -99.0 -99.0  92.0 -99.0 -99.0   2.0   6.2   0.8 -99.0 -99.0  26.5
   198 -99.0 -99.0 -99.0 -99.0 -99.0 -99.0 -99.0  98.0 -99.0 -99.0   2.2   5.0   0.8 -99.0 -99.0  25.4
   220 -99.0 -99.0 -99.0 -99.0 -99.0 -99.0 -99.0 -99.0 -99.0 -99.0 -99.0 -99.0 -99.0 -99.0 -99.0 -99.0

*WI_SNAR019  WISE        SIL     160 WISE DATABASE, SOIL AR019
@SITE        COUNTRY          LAT     LONG SCS Family
 -99         Argentina    -33.267  -60.850 Gleyic Solonetz (SNg)
@ SCOM  SALB  SLU1  SLDR  SLRO  SLNF  SLPF  SMHB  SMPX  SMKE
    BN  0.13  9.92  0.25 75.00  1.00  1.00 SA001 SA001 SA001
@  SLB  SLMH  SLLL  SDUL  SSAT  SRGF  SSKS  SBDM  SLOC  SLCL  SLSI  SLCF  SLNI  SLHW  SLHB  SCEC  SADC
    14   A11 0.143 0.337 0.490  1.00  0.89  1.25  1.75 24.00 70.00 -99.0  0.18  5.60 -99.0 19.80 -99.0
    28   A12 0.149 0.341 0.484  0.66  0.77  1.27  1.30 24.00 68.00 -99.0  0.14  6.60 -99.0 18.60 -99.0
    60  B21t 0.243 0.381 0.456  0.41  0.17  1.40  0.40 49.00 47.00 -99.0  0.07  8.50 -99.0 33.20 -99.0
    95  B22t 0.183 0.336 0.442  0.21  0.39  1.44  0.17 34.00 61.00 -99.0  0.04  8.70 -99.0 26.80 -99.0
   135    B3 0.237 0.368 0.437  0.10  0.15  1.45  0.11 28.00 67.00 -99.0  0.03  8.40 -99.0 24.50 -99.0
   160     C 0.235 0.375 0.432  0.05  0.14  1.44  0.09 23.00 71.00 -99.0  0.01  8.00 -99.0 22.50 -99.0
@  SLB  SLPX  SLPT  SLPO CACO3  SLAL  SLFE  SLMN  SLBS  SLPA  SLPB  SLKE  SLMG  SLNA  SLSU  SLEC  SLCA
    14 -99.0 -99.0 -99.0 -99.0 -99.0 -99.0 -99.0  78.0 -99.0 -99.0   2.3   3.2   0.6 -99.0 -99.0   9.3
    28 -99.0 -99.0 -99.0 -99.0 -99.0 -99.0 -99.0  89.0 -99.0 -99.0   1.4   3.2   2.5 -99.0 -99.0   9.4
    60 -99.0 -99.0 -99.0   0.9 -99.0 -99.0 -99.0 -99.0 -99.0 -99.0   3.4 -99.0  10.0 -99.0 -99.0 -99.0
    95 -99.0 -99.0 -99.0   3.0 -99.0 -99.0 -99.0 -99.0 -99.0 -99.0   3.2 -99.0   6.0 -99.0 -99.0 -99.0
   135 -99.0 -99.0 -99.0   1.5 -99.0 -99.0 -99.0 -99.0 -99.0 -99.0   2.7 -99.0   2.2 -99.0 -99.0 -99.0
   160 -99.0 -99.0 -99.0   1.5 -99.0 -99.0 -99.0 -99.0 -99.0 -99.0   2.4 -99.0   1.3 -99.0 -99.0 -99.0

*WI_PLAR020  WISE        SIL     150 WISE DATABASE, SOIL AR020
@SITE        COUNTRY          LAT     LONG SCS Family
 -99         Argentina    -33.951  -60.554 Mollic Planosol (PLm)
@ SCOM  SALB  SLU1  SLDR  SLRO  SLNF  SLPF  SMHB  SMPX  SMKE
    BN  0.13  9.76  0.40 75.00  1.00  1.00 SA001 SA001 SA001
@  SLB  SLMH  SLLL  SDUL  SSAT  SRGF  SSKS  SBDM  SLOC  SLCL  SLSI  SLCF  SLNI  SLHW  SLHB  SCEC  SADC
    19    Ap 0.157 0.349 0.531  1.00  1.12  1.14  1.60 22.00 62.00 -99.0  0.17  6.20 -99.0 16.10 -99.0
    28    A2 0.124 0.273 0.512  0.63  2.95  1.21  0.72 20.00 63.00 -99.0  0.08  6.80 -99.0 12.10 -99.0
    50  B21t 0.196 0.338 0.495  0.46  0.82  1.29  0.50 33.00 53.00 -99.0  0.07  7.30 -99.0 21.50 -99.0
    73  B22t 0.194 0.300 0.491  0.29  1.47  1.30  0.27 35.00 48.00 -99.0  0.03  8.00 -99.0 28.80 -99.0
   135  B3ca 0.182 0.344 0.487  0.12  0.76  1.29  0.10 21.00 64.00 -99.0  0.01  8.80 -99.0 20.70 -99.0
   150     C 0.124 0.262 0.503  0.06  3.26  1.24  0.10 20.00 59.00 -99.0  0.01  8.50 -99.0 19.60 -99.0
@  SLB  SLPX  SLPT  SLPO CACO3  SLAL  SLFE  SLMN  SLBS  SLPA  SLPB  SLKE  SLMG  SLNA  SLSU  SLEC  SLCA
    19 -99.0 -99.0 -99.0 -99.0 -99.0 -99.0 -99.0  72.0 -99.0 -99.0   1.5   1.8   0.4 -99.0 -99.0   7.9
    28 -99.0 -99.0 -99.0 -99.0 -99.0 -99.0 -99.0  81.0 -99.0 -99.0   1.2   2.3   0.6 -99.0 -99.0   5.7
    50 -99.0 -99.0 -99.0 -99.0 -99.0 -99.0 -99.0  94.0 -99.0 -99.0   2.3   5.8   1.6 -99.0 -99.0  10.6
    73 -99.0 -99.0 -99.0 -99.0 -99.0 -99.0 -99.0 -99.0 -99.0 -99.0   3.0 -99.0   3.1 -99.0 -99.0 -99.0
   135 -99.0 -99.0 -99.0   4.2 -99.0 -99.0 -99.0 -99.0 -99.0 -99.0   3.2 -99.0   4.0 -99.0 -99.0 -99.0
   150 -99.0 -99.0 -99.0 -99.0 -99.0 -99.0 -99.0 -99.0 -99.0 -99.0   3.0 -99.0   2.3 -99.0 -99.0 -99.0

*WI_PHAR021  WISE        SIL     220 WISE DATABASE, SOIL AR021
@SITE        COUNTRY          LAT     LONG SCS Family
 -99         Argentina    -33.896  -60.336 Luvic Phaeozem (PHl)
@ SCOM  SALB  SLU1  SLDR  SLRO  SLNF  SLPF  SMHB  SMPX  SMKE
    BN  0.13 10.08  0.40 75.00  1.00  1.00 SA001 SA001 SA001
@  SLB  SLMH  SLLL  SDUL  SSAT  SRGF  SSKS  SBDM  SLOC  SLCL  SLSI  SLCF  SLNI  SLHW  SLHB  SCEC  SADC
    14    Ap 0.148 0.337 0.504  1.00  1.03  1.21  1.98 26.00 66.00 -99.0  0.20  5.40 -99.0 21.40 -99.0
    28   A12 0.156 0.353 0.490  0.66  0.66  1.25  1.62 26.00 67.00 -99.0  0.16  5.50 -99.0 20.80 -99.0
    38    B1 0.188 0.317 0.488  0.52  1.08  1.29  1.11 32.00 60.00 -99.0  0.11  5.50 -99.0 19.70 -99.0
    70  B21t 0.239 0.356 0.471  0.34  0.41  1.35  0.70 43.00 51.00 -99.0  0.07  6.00 -99.0 27.60 -99.0
   130  B22t 0.210 0.339 0.460  0.14  0.49  1.39  0.35 37.00 56.00 -99.0  0.04  6.50 -99.0 28.70 -99.0
   220   B31 0.227 0.362 0.452  0.03  0.25  1.41  0.10 31.00 61.00 -99.0  0.01  6.50 -99.0 24.30 -99.0
@  SLB  SLPX  SLPT  SLPO CACO3  SLAL  SLFE  SLMN  SLBS  SLPA  SLPB  SLKE  SLMG  SLNA  SLSU  SLEC  SLCA
    14 -99.0 -99.0 -99.0 -99.0 -99.0 -99.0 -99.0  80.0 -99.0 -99.0   2.5   3.3   0.3 -99.0 -99.0  11.0
    28 -99.0 -99.0 -99.0 -99.0 -99.0 -99.0 -99.0  80.0 -99.0 -99.0   1.4   3.8   0.5 -99.0 -99.0  11.0
    38 -99.0 -99.0 -99.0 -99.0 -99.0 -99.0 -99.0  81.0 -99.0 -99.0   0.9   3.6   0.4 -99.0 -99.0  11.0
    70 -99.0 -99.0 -99.0 -99.0 -99.0 -99.0 -99.0  88.0 -99.0 -99.0   1.5   6.0   0.7 -99.0 -99.0  16.0
   130 -99.0 -99.0 -99.0 -99.0 -99.0 -99.0 -99.0  91.0 -99.0 -99.0   1.9   5.3   0.6 -99.0 -99.0  18.2
   220 -99.0 -99.0 -99.0 -99.0 -99.0 -99.0 -99.0  94.0 -99.0 -99.0   1.7   5.8   0.7 -99.0 -99.0  14.6

*WI_KSAR025  WISE        L       100 WISE DATABASE, SOIL AR025
@SITE        COUNTRY          LAT     LONG SCS Family
 -99         Argentina    -35.267  -64.867 Haplic Kastanozem (KSh)
@ SCOM  SALB  SLU1  SLDR  SLRO  SLNF  SLPF  SMHB  SMPX  SMKE
    BN  0.13  9.60  0.75 61.00  1.00  1.00 SA001 SA001 SA001
@  SLB  SLMH  SLLL  SDUL  SSAT  SRGF  SSKS  SBDM  SLOC  SLCL  SLSI  SLCF  SLNI  SLHW  SLHB  SCEC  SADC
    28    A1 0.157 0.334 0.476  0.76  0.79  1.29  1.50 20.00 37.00 -99.0  0.13  6.70 -99.0 22.90 -99.0
    55    AC 0.135 0.246 0.440  0.44  2.42  1.41  0.60 18.00 35.00 -99.0  0.07  7.50 -99.0 20.60 -99.0
    85    C1 0.126 0.231 0.431  0.25  2.92  1.44  0.44 15.00 35.00 -99.0  0.06  7.70 -99.0 20.00 -99.0
   100    C2 0.117 0.227 0.427  0.16  3.02  1.45  0.35 15.00 35.00 -99.0  0.05  8.40 -99.0 20.60 -99.0
@  SLB  SLPX  SLPT  SLPO CACO3  SLAL  SLFE  SLMN  SLBS  SLPA  SLPB  SLKE  SLMG  SLNA  SLSU  SLEC  SLCA
    28 -99.0 -99.0 -99.0 -99.0 -99.0 -99.0 -99.0  92.0 -99.0 -99.0   2.3   4.8   0.7 -99.0 -99.0  13.0
    55 -99.0 -99.0 -99.0 -99.0 -99.0 -99.0 -99.0 100.0 -99.0 -99.0   2.4   4.9   1.3 -99.0 -99.0  12.0
    85 -99.0 -99.0 -99.0 -99.0 -99.0 -99.0 -99.0 100.0 -99.0 -99.0   2.5   3.8   0.6 -99.0 -99.0  13.0
   100 -99.0 -99.0 -99.0   0.3 -99.0 -99.0 -99.0 -99.0 -99.0 -99.0   1.9 -99.0   1.6 -99.0 -99.0 -99.0

*WI_SCAR027  WISE        LS       60 WISE DATABASE, SOIL AR027
@SITE        COUNTRY          LAT     LONG SCS Family
 -99         Argentina    -37.750  -65.817 Sodic Solonchak (SCn)
@ SCOM  SALB  SLU1  SLDR  SLRO  SLNF  SLPF  SMHB  SMPX  SMKE
    BN  0.13  6.95  0.40 73.00  1.00  1.00 SA001 SA001 SA001
@  SLB  SLMH  SLLL  SDUL  SSAT  SRGF  SSKS  SBDM  SLOC  SLCL  SLSI  SLCF  SLNI  SLHW  SLHB  SCEC  SADC
    20    AC 0.026 0.099 0.378  0.82 30.42  1.57  0.24  7.00  6.00 -99.0  0.02  7.10 -99.0  7.50 -99.0
    40     C 0.022 0.083 0.367  0.55 44.16  1.60  0.14  8.00  7.00  1.00  0.01  8.50 -99.0  8.50 -99.0
    60 IIC2x 0.202 0.284 0.362  0.37  0.43  1.62  0.14 14.00 11.00  1.00  0.01  8.70 -99.0 16.60 -99.0
@  SLB  SLPX  SLPT  SLPO CACO3  SLAL  SLFE  SLMN  SLBS  SLPA  SLPB  SLKE  SLMG  SLNA  SLSU  SLEC  SLCA
    20 -99.0 -99.0 -99.0 -99.0 -99.0 -99.0 -99.0  99.0 -99.0 -99.0   1.5   2.4   0.3 -99.0   1.3   3.2
    40 -99.0 -99.0 -99.0 -99.0 -99.0 -99.0 -99.0 -99.0 -99.0 -99.0   1.3 -99.0   0.7 -99.0   3.3 -99.0
    60 -99.0 -99.0 -99.0 -99.0 -99.0 -99.0 -99.0 -99.0 -99.0 -99.0   2.1 -99.0   3.0 -99.0   9.2 -99.0

*WI_KSAR028  WISE        SL       65 WISE DATABASE, SOIL AR028
@SITE        COUNTRY          LAT     LONG SCS Family
 -99         Argentina    -35.800  -64.167 Haplic Kastanozem (KSh)
@ SCOM  SALB  SLU1  SLDR  SLRO  SLNF  SLPF  SMHB  SMPX  SMKE
    BN  0.13  9.04  0.75 61.00  1.00  1.00 SA001 SA001 SA001
@  SLB  SLMH  SLLL  SDUL  SSAT  SRGF  SSKS  SBDM  SLOC  SLCL  SLSI  SLCF  SLNI  SLHW  SLHB  SCEC  SADC
    15    Ap 0.047 0.182 0.440  1.00  7.96  1.37  1.05 13.00 29.00 -99.0  0.09  7.00 -99.0 14.10 -99.0
    37   A12 0.059 0.178 0.427  0.59  7.79  1.42  0.75 14.00 29.00 -99.0  0.08  7.00 -99.0 15.50 -99.0
    65    AC 0.127 0.246 0.412  0.36  1.99  1.47  0.45 12.00 27.00 -99.0  0.06  7.50 -99.0 15.70 -99.0
@  SLB  SLPX  SLPT  SLPO CACO3  SLAL  SLFE  SLMN  SLBS  SLPA  SLPB  SLKE  SLMG  SLNA  SLSU  SLEC  SLCA
    15 -99.0 -99.0 -99.0 -99.0 -99.0 -99.0 -99.0 100.0 -99.0 -99.0   2.3   3.8   0.5 -99.0 -99.0   7.5
    37 -99.0 -99.0 -99.0 -99.0 -99.0 -99.0 -99.0  96.0 -99.0 -99.0   2.4   3.3   0.5 -99.0 -99.0   8.7
    65 -99.0 -99.0 -99.0 -99.0 -99.0 -99.0 -99.0 100.0 -99.0 -99.0   1.0   3.7   0.6 -99.0 -99.0  10.4

*WI_ARAR031  WISE        LS       60 WISE DATABASE, SOIL AR031
@SITE        COUNTRY          LAT     LONG SCS Family
 -99         Argentina    -36.700  -65.283 Haplic Arenosol (ARh)
@ SCOM  SALB  SLU1  SLDR  SLRO  SLNF  SLPF  SMHB  SMPX  SMKE
    BN  0.13  7.70  0.60 73.00  1.00  1.00 SA001 SA001 SA001
@  SLB  SLMH  SLLL  SDUL  SSAT  SRGF  SSKS  SBDM  SLOC  SLCL  SLSI  SLCF  SLNI  SLHW  SLHB  SCEC  SADC
    16    A1 0.033 0.124 0.392  1.00 18.01  1.53  0.36  6.00 12.00 -99.0  0.05  8.00 -99.0  8.90 -99.0
    40    AC 0.032 0.118 0.387  0.57 20.03  1.54  0.31  5.00 11.00 -99.0  0.05  8.30 -99.0  9.70 -99.0
    60   Cca 0.027 0.108 0.384  0.37 25.19  1.55  0.25  5.00 11.00 -99.0  0.03  8.50 -99.0 12.50 -99.0
@  SLB  SLPX  SLPT  SLPO CACO3  SLAL  SLFE  SLMN  SLBS  SLPA  SLPB  SLKE  SLMG  SLNA  SLSU  SLEC  SLCA
    16 -99.0 -99.0 -99.0   0.2 -99.0 -99.0 -99.0 100.0 -99.0 -99.0   1.3   0.8   0.5 -99.0 -99.0   5.3
    40 -99.0 -99.0 -99.0   0.3 -99.0 -99.0 -99.0 -99.0 -99.0 -99.0   1.3 -99.0   0.6 -99.0 -99.0 -99.0
    60 -99.0 -99.0 -99.0   0.6 -99.0 -99.0 -99.0 -99.0 -99.0 -99.0   1.0 -99.0   0.7 -99.0 -99.0 -99.0

*WI_RGAR033  WISE        LS      100 WISE DATABASE, SOIL AR033
@SITE        COUNTRY          LAT     LONG SCS Family
 -99         Argentina    -37.283  -65.450 Calcaric Regosol (RGc)
@ SCOM  SALB  SLU1  SLDR  SLRO  SLNF  SLPF  SMHB  SMPX  SMKE
    BN  0.13  8.48  0.85 61.00  1.00  1.00 SA001 SA001 SA001
@  SLB  SLMH  SLLL  SDUL  SSAT  SRGF  SSKS  SBDM  SLOC  SLCL  SLSI  SLCF  SLNI  SLHW  SLHB  SCEC  SADC
    30  ACca 0.034 0.127 0.404  0.74 18.33  1.49  0.40  6.00 16.00 -99.0  0.06  8.10 -99.0 12.20 -99.0
   100  C1ca 0.033 0.124 0.397  0.27 18.70  1.51  0.30  6.00 15.00 -99.0  0.03  8.20 -99.0 10.30 -99.0
@  SLB  SLPX  SLPT  SLPO CACO3  SLAL  SLFE  SLMN  SLBS  SLPA  SLPB  SLKE  SLMG  SLNA  SLSU  SLEC  SLCA
    30 -99.0 -99.0 -99.0   0.7 -99.0 -99.0 -99.0 -99.0 -99.0 -99.0   0.7 -99.0   0.8 -99.0 -99.0 -99.0
   100 -99.0 -99.0 -99.0   0.7 -99.0 -99.0 -99.0 -99.0 -99.0 -99.0   0.6 -99.0   1.0 -99.0 -99.0 -99.0

*WI_KSAR034  WISE        SL       60 WISE DATABASE, SOIL AR034
@SITE        COUNTRY          LAT     LONG SCS Family
 -99         Argentina    -38.050  -63.517 Calcic Kastanozem (KSk)
@ SCOM  SALB  SLU1  SLDR  SLRO  SLNF  SLPF  SMHB  SMPX  SMKE
    BN  0.13  9.60  0.75 61.00  1.00  1.00 SA001 SA001 SA001
@  SLB  SLMH  SLLL  SDUL  SSAT  SRGF  SSKS  SBDM  SLOC  SLCL  SLSI  SLCF  SLNI  SLHW  SLHB  SCEC  SADC
    34     A 0.054 0.203 0.437  0.71  5.39  1.38  1.30 20.00 25.00  1.00  0.13  8.10 -99.0 20.40 -99.0
    45  ACca 0.047 0.182 0.443  0.45  8.16  1.36  1.18 16.00 30.00  1.00  0.12  8.20 -99.0 22.70 -99.0
    60  C1ca 0.045 0.180 0.453  0.35  8.53  1.36  1.09 17.00 33.00  7.00  0.12 -99.0 -99.0 21.80 -99.0
@  SLB  SLPX  SLPT  SLPO CACO3  SLAL  SLFE  SLMN  SLBS  SLPA  SLPB  SLKE  SLMG  SLNA  SLSU  SLEC  SLCA
    34 -99.0 -99.0 -99.0 -99.0 -99.0 -99.0 -99.0 -99.0 -99.0 -99.0   2.7 -99.0   0.7 -99.0 -99.0 -99.0
    45 -99.0 -99.0 -99.0   2.6 -99.0 -99.0 -99.0 -99.0 -99.0 -99.0   1.4 -99.0   1.1 -99.0 -99.0 -99.0
    60 -99.0 -99.0 -99.0   6.0 -99.0 -99.0 -99.0 -99.0 -99.0 -99.0   0.8 -99.0   1.0 -99.0 -99.0 -99.0

*WI_RGAR035  WISE        LS       40 WISE DATABASE, SOIL AR035
@SITE        COUNTRY          LAT     LONG SCS Family
 -99         Argentina    -38.600  -64.883 Calcaric Regosol (RGc)
@ SCOM  SALB  SLU1  SLDR  SLRO  SLNF  SLPF  SMHB  SMPX  SMKE
    BN  0.13  8.56  0.85 61.00  1.00  1.00 SA001 SA001 SA001
@  SLB  SLMH  SLLL  SDUL  SSAT  SRGF  SSKS  SBDM  SLOC  SLCL  SLSI  SLCF  SLNI  SLHW  SLHB  SCEC  SADC
    40    AC 0.032 0.133 0.406  0.67 16.22  1.48  0.58  7.00 15.00 14.00  0.07  8.50 -99.0 13.70 -99.0
@  SLB  SLPX  SLPT  SLPO CACO3  SLAL  SLFE  SLMN  SLBS  SLPA  SLPB  SLKE  SLMG  SLNA  SLSU  SLEC  SLCA
    40 -99.0 -99.0 -99.0   1.8 -99.0 -99.0 -99.0 -99.0 -99.0 -99.0   0.9 -99.0   0.7 -99.0 -99.0 -99.0

*WI_PHAR038  WISE        SIL     119 WISE DATABASE, SOIL AR038
@SITE        COUNTRY          LAT     LONG SCS Family
 -99         Argentina    -34.226  -60.822 Luvic Phaeozem (PHl)
@ SCOM  SALB  SLU1  SLDR  SLRO  SLNF  SLPF  SMHB  SMPX  SMKE
    BN  0.13  9.92  0.60 73.00  1.00  1.00 SA001 SA001 SA001
@  SLB  SLMH  SLLL  SDUL  SSAT  SRGF  SSKS  SBDM  SLOC  SLCL  SLSI  SLCF  SLNI  SLHW  SLHB  SCEC  SADC
    30    A1 0.148 0.337 0.414  0.74  0.27  1.45  2.03 24.00 59.00 -99.0  0.20  6.00 -99.0 21.60 -99.0
    39    B1 0.143 0.309 0.429  0.50  0.66  1.43  1.05 27.00 57.00 -99.0  0.10  6.10 -99.0 20.20 -99.0
    60  B21t 0.231 0.346 0.364  0.37  0.02  1.64  0.60 35.00 48.00 -99.0  0.06  6.30 -99.0 21.50 -99.0
    82  B22t 0.222 0.349 0.384  0.24  0.06  1.59  0.45 31.00 49.00 -99.0  0.04  6.40 -99.0 22.00 -99.0
   104    B3 0.126 0.271 0.464  0.16  2.01  1.35  0.28 21.00 52.00 -99.0  0.03  6.40 -99.0 19.80 -99.0
   119     C 0.091 0.225 0.419  0.11  2.85  1.48  0.11 12.00 60.00 -99.0  0.01  6.50 -99.0 16.50 -99.0
@  SLB  SLPX  SLPT  SLPO CACO3  SLAL  SLFE  SLMN  SLBS  SLPA  SLPB  SLKE  SLMG  SLNA  SLSU  SLEC  SLCA
    30 -99.0 -99.0 -99.0 -99.0 -99.0 -99.0 -99.0  91.0 -99.0 -99.0   2.3   1.9   0.3 -99.0   2.5  15.2
    39 -99.0 -99.0 -99.0 -99.0 -99.0 -99.0 -99.0  89.0 -99.0 -99.0   1.6   1.0   0.2 -99.0   3.0  15.2
    60 -99.0 -99.0 -99.0 -99.0 -99.0 -99.0 -99.0  90.0 -99.0 -99.0   1.2   3.4   0.2 -99.0   3.5  14.6
    82 -99.0 -99.0 -99.0 -99.0 -99.0 -99.0 -99.0  89.0 -99.0 -99.0   1.5   4.1   0.2 -99.0   3.1  13.8
   104 -99.0 -99.0 -99.0 -99.0 -99.0 -99.0 -99.0  90.0 -99.0 -99.0   1.5   3.8   0.2 -99.0   3.6  12.4
   119 -99.0 -99.0 -99.0 -99.0 -99.0 -99.0 -99.0  92.0 -99.0 -99.0   1.5   2.3   0.2 -99.0   3.9  11.1

*WI_PHAR041  WISE        L       200 WISE DATABASE, SOIL AR041
@SITE        COUNTRY          LAT     LONG SCS Family
 -99         Argentina    -34.650  -60.833 Haplic Phaeozem (PHh)
@ SCOM  SALB  SLU1  SLDR  SLRO  SLNF  SLPF  SMHB  SMPX  SMKE
    BK  0.09  9.36  0.40 75.00  1.00  1.00 SA001 SA001 SA001
@  SLB  SLMH  SLLL  SDUL  SSAT  SRGF  SSKS  SBDM  SLOC  SLCL  SLSI  SLCF  SLNI  SLHW  SLHB  SCEC  SADC
    26     A 0.046 0.180 0.458  0.77  8.81  1.35  1.00 17.00 36.00 -99.0  0.18  6.60 -99.0 20.90 -99.0
    38    AB 0.137 0.244 0.430  0.53  2.30  1.44  0.50 18.00 33.00 -99.0  0.10  6.70 -99.0 18.50 -99.0
    63    BA 0.119 0.246 0.423  0.36  2.05  1.46  0.40 20.00 32.00 -99.0  0.10  6.80 -99.0 18.50 -99.0
    90     B 0.105 0.248 0.422  0.22  1.95  1.47  0.25 19.00 34.00 -99.0  0.06  6.80 -99.0 18.30 -99.0
   150   BC1 0.108 0.244 0.417  0.09  1.99  1.48  0.20 16.00 33.00 -99.0  0.05  6.90 -99.0 18.20 -99.0
   180   BC2 0.127 0.242 0.427  0.04  2.52  1.43  0.15 11.00 36.00 -99.0  0.03  7.00 -99.0 17.60 -99.0
   200     C 0.127 0.242 0.415  0.02  2.23  1.47  0.10 10.00 33.00 -99.0  0.01  7.10 -99.0 16.90 -99.0
@  SLB  SLPX  SLPT  SLPO CACO3  SLAL  SLFE  SLMN  SLBS  SLPA  SLPB  SLKE  SLMG  SLNA  SLSU  SLEC  SLCA
    26 -99.0 -99.0 -99.0 -99.0 -99.0 -99.0 -99.0  91.0 -99.0 -99.0   2.0   3.5   0.5 -99.0 -99.0  13.0
    38 -99.0 -99.0 -99.0 -99.0 -99.0 -99.0 -99.0  91.0 -99.0 -99.0   1.9   3.5   0.4 -99.0 -99.0  10.8
    63 -99.0 -99.0 -99.0 -99.0 -99.0 -99.0 -99.0  91.0 -99.0 -99.0   1.9   3.4   0.4 -99.0 -99.0  10.9
    90 -99.0 -99.0 -99.0 -99.0 -99.0 -99.0 -99.0  89.0 -99.0 -99.0   2.1   3.8   0.4 -99.0 -99.0   9.8
   150 -99.0 -99.0 -99.0 -99.0 -99.0 -99.0 -99.0  91.0 -99.0 -99.0   2.1   4.3   0.4 -99.0 -99.0   9.7
   180 -99.0 -99.0 -99.0 -99.0 -99.0 -99.0 -99.0  93.0 -99.0 -99.0   2.2   4.1   0.4 -99.0 -99.0   9.5
   200 -99.0 -99.0 -99.0 -99.0 -99.0 -99.0 -99.0  96.0 -99.0 -99.0   2.3   4.0   0.4 -99.0 -99.0   9.4
