*SOILS: Suelos Bolivia

*70529       WISE        -99    -100 -99
@SITE        COUNTRY          LAT     LONG SCS FAMILY
-99          Bolivia      -13.100  -64.620 -99
@ SCOM  SALB  SLU1  SLDR  SLRO  SLNF  SLPF  SMHB  SMPX  SMKE
    BL  0.25  6.00  0.40   0.7  1.00  1.00 IB001 IB001 IB001
@  SLB  SLMH  SLLL  SDUL  SSAT  SRGF  SSKS  SBDM  SLOC  SLCL  SLSI  SLCF  SLNI  SLHW  SLHB  SCEC  SADC
    20   Ah1 0.107 0.435 0.560 1.000 0.081  1.00   23.  16.0  40.0 -99.9 -99.9 -99.9 -99.9 -99.9 -99.9
    50   Ah2 0.116 0.391 0.560 0.800 0.166  1.00   17.  18.0  44.0 -99.9 -99.9 -99.9 -99.9 -99.9 -99.9
    80   Bt2 0.236 0.386 0.557 0.200 0.121  1.01 5.000  45.0  25.0 -99.9 -99.9 -99.9 -99.9 -99.9 -99.9
   150     C 0.214 0.352 0.506 0.160 0.090  1.16 3.000  40.0  28.0 -99.9 -99.9 -99.9 -99.9 -99.9 -99.9

*70530       WISE        -99    -100 -99
@SITE        COUNTRY          LAT     LONG SCS FAMILY
-99          Bolivia      -17.600  -67.200 -99
@ SCOM  SALB  SLU1  SLDR  SLRO  SLNF  SLPF  SMHB  SMPX  SMKE
    BL  0.25  6.00  0.40   0.7  1.00  1.00 IB001 IB001 IB001
@  SLB  SLMH  SLLL  SDUL  SSAT  SRGF  SSKS  SBDM  SLOC  SLCL  SLSI  SLCF  SLNI  SLHW  SLHB  SCEC  SADC
    12    A1 0.116 0.301 0.560 1.000 0.469  1.00 9.000  18.0  25.0 -99.9 -99.9 -99.9 -99.9 -99.9 -99.9
    21    A2 0.152 0.326 0.560 1.000 0.332  1.00 8.000  26.0  21.0 -99.9 -99.9 -99.9 -99.9 -99.9 -99.9
    37       0.307 0.498 0.560 1.000 0.007  1.00 9.000  61.0  23.0 -99.9 -99.9 -99.9 -99.9 -99.9 -99.9

*70531       WISE        -99    -100 -99
@SITE        COUNTRY          LAT     LONG SCS FAMILY
-99          Bolivia      -17.950  -60.650 -99
@ SCOM  SALB  SLU1  SLDR  SLRO  SLNF  SLPF  SMHB  SMPX  SMKE
    BL  0.25  6.00  0.40   0.7  1.00  1.00 IB001 IB001 IB001
@  SLB  SLMH  SLLL  SDUL  SSAT  SRGF  SSKS  SBDM  SLOC  SLCL  SLSI  SLCF  SLNI  SLHW  SLHB  SCEC  SADC
    15    Ap 0.178 0.413 0.560 1.000 0.094  1.00   15.  32.0  10.0 -99.9 -99.9 -99.9 -99.9 -99.9 -99.9
    39   Bt1 0.209 0.378 0.560 1.000 0.153  1.00 8.000  39.0   9.0 -99.9 -99.9 -99.9 -99.9 -99.9 -99.9

*70533       WISE        -99    -100 -99
@SITE        COUNTRY          LAT     LONG SCS FAMILY
-99          Bolivia      -19.000  -65.320 -99
@ SCOM  SALB  SLU1  SLDR  SLRO  SLNF  SLPF  SMHB  SMPX  SMKE
    BL  0.25  6.00  0.40   0.7  1.00  1.00 IB001 IB001 IB001
@  SLB  SLMH  SLLL  SDUL  SSAT  SRGF  SSKS  SBDM  SLOC  SLCL  SLSI  SLCF  SLNI  SLHW  SLHB  SCEC  SADC
    13    Ap 0.125 0.279 0.554 1.000 0.527  1.02 5.000  20.0  33.0 -99.9 -99.9 -99.9 -99.9 -99.9 -99.9
    59  Btxg 0.258 0.387 0.472 0.320 0.015  1.26 1.000  50.0  31.0 -99.9 -99.9 -99.9 -99.9 -99.9 -99.9

*70548       WISE        -99    -100 -99
@SITE        COUNTRY          LAT     LONG SCS FAMILY
-99          Bolivia      -11.850  -66.170 -99
@ SCOM  SALB  SLU1  SLDR  SLRO  SLNF  SLPF  SMHB  SMPX  SMKE
    BL  0.25  6.00  0.40   0.7  1.00  1.00 IB001 IB001 IB001
@  SLB  SLMH  SLLL  SDUL  SSAT  SRGF  SSKS  SBDM  SLOC  SLCL  SLSI  SLCF  SLNI  SLHW  SLHB  SCEC  SADC
    16   Ah1 0.223 0.577 0.560 1.000 0.000  1.00   27.  42.0  18.0 -99.9 -99.9 -99.9 -99.9 -99.9 -99.9
    52   Ah2 0.245 0.428 0.560 0.320 0.060  1.00 9.000  47.0  17.0 -99.9 -99.9 -99.9 -99.9 -99.9 -99.9
    85   Bo1 0.267 0.388 0.427 0.200 0.002  1.39 1.000  52.0  17.0 -99.9 -99.9 -99.9 -99.9 -99.9 -99.9

*70549       WISE        -99    -100 -99
@SITE        COUNTRY          LAT     LONG SCS FAMILY
-99          Bolivia      -21.350  -63.220 -99
@ SCOM  SALB  SLU1  SLDR  SLRO  SLNF  SLPF  SMHB  SMPX  SMKE
    BL  0.25  6.00  0.40   0.7  1.00  1.00 IB001 IB001 IB001
@  SLB  SLMH  SLLL  SDUL  SSAT  SRGF  SSKS  SBDM  SLOC  SLCL  SLSI  SLCF  SLNI  SLHW  SLHB  SCEC  SADC
    12    Ah 0.147 0.455 0.560 1.000 0.044  1.00   19.  25.0  70.0 -99.9 -99.9 -99.9 -99.9 -99.9 -99.9
    26       0.105 0.379 0.560 1.000 0.204  1.00   15.  15.0  78.0 -99.9 -99.9 -99.9 -99.9 -99.9 -99.9
    97       0.081 0.300 0.560 0.500 0.540  1.00   10.  10.0  61.0 -99.9 -99.9 -99.9 -99.9 -99.9 -99.9
   150     C 0.105 0.362 0.560 0.300 0.255  1.00   13.  15.0  83.0 -99.9 -99.9 -99.9 -99.9 -99.9 -99.9

*70651       WISE        -99    -100 -99
@SITE        COUNTRY          LAT     LONG SCS FAMILY
-99          Bolivia      -21.850  -65.800 -99
@ SCOM  SALB  SLU1  SLDR  SLRO  SLNF  SLPF  SMHB  SMPX  SMKE
    BL  0.25  6.00  0.40   0.7  1.00  1.00 IB001 IB001 IB001
@  SLB  SLMH  SLLL  SDUL  SSAT  SRGF  SSKS  SBDM  SLOC  SLCL  SLSI  SLCF  SLNI  SLHW  SLHB  SCEC  SADC
    26    Ah 0.125 0.282 0.560 1.000 0.549  1.00 6.000  20.0  24.0 -99.9 -99.9 -99.9 -99.9 -99.9 -99.9
    37   Btx 0.267 0.406 0.493 0.320 0.017  1.20 2.000  52.0  40.0 -99.9 -99.9 -99.9 -99.9 -99.9 -99.9
    63    Bt 0.196 0.325 0.492 0.280 0.115  1.20 3.000  36.0  11.0 -99.9 -99.9 -99.9 -99.9 -99.9 -99.9
    75    Cx 0.214 0.345 0.448 0.200 0.028  1.33 1.000  40.0  36.0 -99.9 -99.9 -99.9 -99.9 -99.9 -99.9

*70652       WISE        -99    -100 -99
@SITE        COUNTRY          LAT     LONG SCS FAMILY
-99          Bolivia      -17.100  -66.020 -99
@ SCOM  SALB  SLU1  SLDR  SLRO  SLNF  SLPF  SMHB  SMPX  SMKE
    BL  0.25  6.00  0.40   0.7  1.00  1.00 IB001 IB001 IB001
@  SLB  SLMH  SLLL  SDUL  SSAT  SRGF  SSKS  SBDM  SLOC  SLCL  SLSI  SLCF  SLNI  SLHW  SLHB  SCEC  SADC
    30    Ah 0.196 0.778 0.560 1.000 0.000  1.00   49.  36.0  46.0 -99.9 -99.9 -99.9 -99.9 -99.9 -99.9
    50    Bt 0.272 0.470 0.560 0.320 0.020  1.00 9.000  53.0  39.0 -99.9 -99.9 -99.9 -99.9 -99.9 -99.9
   120       0.263 0.444 0.560 0.200 0.041  1.00 8.000  51.0  28.0 -99.9 -99.9 -99.9 -99.9 -99.9 -99.9

*70653       WISE        -99    -100 -99
@SITE        COUNTRY          LAT     LONG SCS FAMILY
-99          Bolivia      -15.500  -62.930 -99
@ SCOM  SALB  SLU1  SLDR  SLRO  SLNF  SLPF  SMHB  SMPX  SMKE
    BL  0.25  6.00  0.40   0.7  1.00  1.00 IB001 IB001 IB001
@  SLB  SLMH  SLLL  SDUL  SSAT  SRGF  SSKS  SBDM  SLOC  SLCL  SLSI  SLCF  SLNI  SLHW  SLHB  SCEC  SADC
    26    A1 0.147 0.303 0.560 1.000 0.425  1.00 6.000  25.0  22.0 -99.9 -99.9 -99.9 -99.9 -99.9 -99.9
    60    Bt 0.307 0.443 0.527 0.320 0.014  1.10 4.000  61.0  12.0 -99.9 -99.9 -99.9 -99.9 -99.9 -99.9
   110    C1 0.094 0.231 0.512 0.500 0.578  1.14 4.000  13.0  17.0 -99.9 -99.9 -99.9 -99.9 -99.9 -99.9

*70654       WISE        -99    -100 -99
@SITE        COUNTRY          LAT     LONG SCS FAMILY
-99          Bolivia      -14.600  -60.480 -99
@ SCOM  SALB  SLU1  SLDR  SLRO  SLNF  SLPF  SMHB  SMPX  SMKE
    BL  0.25  6.00  0.40   0.7  1.00  1.00 IB001 IB001 IB001
@  SLB  SLMH  SLLL  SDUL  SSAT  SRGF  SSKS  SBDM  SLOC  SLCL  SLSI  SLCF  SLNI  SLHW  SLHB  SCEC  SADC
    10   Ah1 0.227 0.454 0.560 1.000 0.035  1.00   14.  43.0  11.0 -99.9 -99.9 -99.9 -99.9 -99.9 -99.9
    30   Ah2 0.223 0.400 0.560 1.000 0.106  1.00 9.000  42.0   8.0 -99.9 -99.9 -99.9 -99.9 -99.9 -99.9
    50       0.223 0.372 0.560 0.320 0.162  1.00 6.000  42.0   9.0 -99.9 -99.9 -99.9 -99.9 -99.9 -99.9
   130    Bt 0.360 0.484 0.503 0.160 0.000  1.17 2.000  73.0   9.0 -99.9 -99.9 -99.9 -99.9 -99.9 -99.9
   145     C 0.405 0.527 0.495 0.120 0.000  1.19 2.000  83.0   7.0 -99.9 -99.9 -99.9 -99.9 -99.9 -99.9

*70655       WISE        -99    -100 -99
@SITE        COUNTRY          LAT     LONG SCS FAMILY
-99          Bolivia      -17.500  -59.330 -99
@ SCOM  SALB  SLU1  SLDR  SLRO  SLNF  SLPF  SMHB  SMPX  SMKE
    BL  0.25  6.00  0.40   0.7  1.00  1.00 IB001 IB001 IB001
@  SLB  SLMH  SLLL  SDUL  SSAT  SRGF  SSKS  SBDM  SLOC  SLCL  SLSI  SLCF  SLNI  SLHW  SLHB  SCEC  SADC
    10    Ah 0.038 0.126 0.404 1.000 0.614  1.46 1.000   8.0   3.0 -99.9 -99.9 -99.9 -99.9 -99.9 -99.9
    40    AC 0.038 0.132 0.453 1.000 0.920  1.32 2.000  10.0   1.0 -99.9 -99.9 -99.9 -99.9 -99.9 -99.9

*70656       WISE        -99    -100 -99
@SITE        COUNTRY          LAT     LONG SCS FAMILY
-99          Bolivia      -18.100  -63.520 -99
@ SCOM  SALB  SLU1  SLDR  SLRO  SLNF  SLPF  SMHB  SMPX  SMKE
    BL  0.25  6.00  0.40   0.7  1.00  1.00 IB001 IB001 IB001
@  SLB  SLMH  SLLL  SDUL  SSAT  SRGF  SSKS  SBDM  SLOC  SLCL  SLSI  SLCF  SLNI  SLHW  SLHB  SCEC  SADC
    10   Ah1 0.143 0.377 0.560 1.000 0.183  1.00   13.  24.0  40.0 -99.9 -99.9 -99.9 -99.9 -99.9 -99.9
    25   Ah2 0.143 0.287 0.546 1.000 0.429  1.04 5.000  24.0  16.0 -99.9 -99.9 -99.9 -99.9 -99.9 -99.9
    51    Bw 0.196 0.343 0.536 0.320 0.176  1.07 4.000  36.0  32.0 -99.9 -99.9 -99.9 -99.9 -99.9 -99.9
    70       0.214 0.332 0.418 0.200 0.016  1.42 1.000  40.0  12.0 -99.9 -99.9 -99.9 -99.9 -99.9 -99.9

*70657       WISE        -99    -100 -99
@SITE        COUNTRY          LAT     LONG SCS FAMILY
-99          Bolivia      -18.700  -58.830 -99
@ SCOM  SALB  SLU1  SLDR  SLRO  SLNF  SLPF  SMHB  SMPX  SMKE
    BL  0.25  6.00  0.40   0.7  1.00  1.00 IB001 IB001 IB001
@  SLB  SLMH  SLLL  SDUL  SSAT  SRGF  SSKS  SBDM  SLOC  SLCL  SLSI  SLCF  SLNI  SLHW  SLHB  SCEC  SADC
    11   Ah1 0.214 0.429 0.560 1.000 0.063  1.00   13.  40.0   9.0 -99.9 -99.9 -99.9 -99.9 -99.9 -99.9
    34   Ah2 0.200 0.378 0.560 1.000 0.155  1.00 9.000  37.0   9.0 -99.9 -99.9 -99.9 -99.9 -99.9 -99.9
    52       0.227 0.406 0.560 0.320 0.094  1.00 9.000  43.0  11.0 -99.9 -99.9 -99.9 -99.9 -99.9 -99.9
    72    B1 0.205 0.333 0.492 0.200 0.099  1.20 3.000  38.0   9.0 -99.9 -99.9 -99.9 -99.9 -99.9 -99.9

*70658       WISE        -99    -100 -99
@SITE        COUNTRY          LAT     LONG SCS FAMILY
-99          Bolivia      -16.200  -62.200 -99
@ SCOM  SALB  SLU1  SLDR  SLRO  SLNF  SLPF  SMHB  SMPX  SMKE
    BL  0.25  6.00  0.40   0.7  1.00  1.00 IB001 IB001 IB001
@  SLB  SLMH  SLLL  SDUL  SSAT  SRGF  SSKS  SBDM  SLOC  SLCL  SLSI  SLCF  SLNI  SLHW  SLHB  SCEC  SADC
    12    Ah 0.156 0.466 0.560 1.000 0.032  1.00   23.  27.0  10.0 -99.9 -99.9 -99.9 -99.9 -99.9 -99.9
    32    C1 0.103 0.284 0.560 1.000 0.572  1.00 9.000  15.0  20.0 -99.9 -99.9 -99.9 -99.9 -99.9 -99.9

*70802       WISE        -99    -100 -99
@SITE        COUNTRY          LAT     LONG SCS FAMILY
-99          Bolivia      -16.950  -61.150 -99
@ SCOM  SALB  SLU1  SLDR  SLRO  SLNF  SLPF  SMHB  SMPX  SMKE
    BL  0.25  6.00  0.40   0.7  1.00  1.00 IB001 IB001 IB001
@  SLB  SLMH  SLLL  SDUL  SSAT  SRGF  SSKS  SBDM  SLOC  SLCL  SLSI  SLCF  SLNI  SLHW  SLHB  SCEC  SADC
    20    A1 0.143 0.371 0.560 1.000 0.200  1.00   14.  24.0  16.0 -99.9 -99.9 -99.9 -99.9 -99.9 -99.9
    40    Bu 0.143 0.322 0.560 0.800 0.354  1.00 9.000  24.0  14.0 -99.9 -99.9 -99.9 -99.9 -99.9 -99.9

*70820       WISE        -99    -100 -99
@SITE        COUNTRY          LAT     LONG SCS FAMILY
-99          Bolivia      -18.130  -64.500 -99
@ SCOM  SALB  SLU1  SLDR  SLRO  SLNF  SLPF  SMHB  SMPX  SMKE
    BL  0.25  6.00  0.40   0.7  1.00  1.00 IB001 IB001 IB001
@  SLB  SLMH  SLLL  SDUL  SSAT  SRGF  SSKS  SBDM  SLOC  SLCL  SLSI  SLCF  SLNI  SLHW  SLHB  SCEC  SADC
    23    Ap 0.196 0.519 0.560 1.000 0.003  1.00   22.  36.0  43.0 -99.9 -99.9 -99.9 -99.9 -99.9 -99.9
    55   Ah1 0.205 0.565 0.560 0.320 0.000  1.00   26.  38.0  42.0 -99.9 -99.9 -99.9 -99.9 -99.9 -99.9

*70821       WISE        -99    -100 -99
@SITE        COUNTRY          LAT     LONG SCS FAMILY
-99          Bolivia      -16.920  -65.300 -99
@ SCOM  SALB  SLU1  SLDR  SLRO  SLNF  SLPF  SMHB  SMPX  SMKE
    BL  0.25  6.00  0.40   0.7  1.00  1.00 IB001 IB001 IB001
@  SLB  SLMH  SLLL  SDUL  SSAT  SRGF  SSKS  SBDM  SLOC  SLCL  SLSI  SLCF  SLNI  SLHW  SLHB  SCEC  SADC
     7    Ah 0.214 0.534 0.560 1.000 0.001  1.00   21.  40.0  57.0 -99.9 -99.9 -99.9 -99.9 -99.9 -99.9
    30       0.232 0.407 0.560 1.000 0.091  1.00 6.000  44.0  53.0 -99.9 -99.9 -99.9 -99.9 -99.9 -99.9
    65    Bs 0.236 0.388 0.516 0.280 0.053  1.13 3.000  45.0  54.0 -99.9 -99.9 -99.9 -99.9 -99.9 -99.9
    75   BCg 0.192 0.337 0.450 0.200 0.039  1.32 1.000  35.0  64.0 -99.9 -99.9 -99.9 -99.9 -99.9 -99.9

*70822       WISE        -99    -100 -99
@SITE        COUNTRY          LAT     LONG SCS FAMILY
-99          Bolivia      -16.730  -65.420 -99
@ SCOM  SALB  SLU1  SLDR  SLRO  SLNF  SLPF  SMHB  SMPX  SMKE
    BL  0.25  6.00  0.40   0.7  1.00  1.00 IB001 IB001 IB001
@  SLB  SLMH  SLLL  SDUL  SSAT  SRGF  SSKS  SBDM  SLOC  SLCL  SLSI  SLCF  SLNI  SLHW  SLHB  SCEC  SADC
    12   Ahr 0.320 0.496 0.560 1.000 0.007  1.00 7.000  64.0  35.0 -99.9 -99.9 -99.9 -99.9 -99.9 -99.9
    20   ACr 0.294 0.457 0.560 1.000 0.027  1.00 6.000  58.0  24.0 -99.9 -99.9 -99.9 -99.9 -99.9 -99.9
    55   Cr1 0.232 0.490 0.560 0.320 0.011  1.00   15.  44.0  44.0 -99.9 -99.9 -99.9 -99.9 -99.9 -99.9
    90   Cr2 0.223 0.367 0.493 0.200 0.051  1.20 2.000  42.0  50.0 -99.9 -99.9 -99.9 -99.9 -99.9 -99.9

*70823       WISE        -99    -100 -99
@SITE        COUNTRY          LAT     LONG SCS FAMILY
-99          Bolivia      -17.980  -68.730 -99
@ SCOM  SALB  SLU1  SLDR  SLRO  SLNF  SLPF  SMHB  SMPX  SMKE
    BL  0.25  6.00  0.40   0.7  1.00  1.00 IB001 IB001 IB001
@  SLB  SLMH  SLLL  SDUL  SSAT  SRGF  SSKS  SBDM  SLOC  SLCL  SLSI  SLCF  SLNI  SLHW  SLHB  SCEC  SADC
    19    Ah 0.072 0.258 0.560 1.000 0.794  1.00 9.000   8.0  30.0 -99.9 -99.9 -99.9 -99.9 -99.9 -99.9
    36       0.085 0.214 0.447 1.000 0.345  1.33 2.000  11.0  25.0 -99.9 -99.9 -99.9 -99.9 -99.9 -99.9

*70825       WISE        -99    -100 -99
@SITE        COUNTRY          LAT     LONG SCS FAMILY
-99          Bolivia      -16.820  -66.030 -99
@ SCOM  SALB  SLU1  SLDR  SLRO  SLNF  SLPF  SMHB  SMPX  SMKE
    BL  0.25  6.00  0.40   0.7  1.00  1.00 IB001 IB001 IB001
@  SLB  SLMH  SLLL  SDUL  SSAT  SRGF  SSKS  SBDM  SLOC  SLCL  SLSI  SLCF  SLNI  SLHW  SLHB  SCEC  SADC
    15    Ah 0.192 0.547 0.560 1.000 0.000  1.00   25.  35.0  48.0 -99.9 -99.9 -99.9 -99.9 -99.9 -99.9

*70827       WISE        -99    -100 -99
@SITE        COUNTRY          LAT     LONG SCS FAMILY
-99          Bolivia      -18.530  -67.870 -99
@ SCOM  SALB  SLU1  SLDR  SLRO  SLNF  SLPF  SMHB  SMPX  SMKE
    BL  0.25  6.00  0.40   0.7  1.00  1.00 IB001 IB001 IB001
@  SLB  SLMH  SLLL  SDUL  SSAT  SRGF  SSKS  SBDM  SLOC  SLCL  SLSI  SLCF  SLNI  SLHW  SLHB  SCEC  SADC
    16    A1 0.085 0.232 0.541 1.000 0.774  1.06 5.000  11.0  23.0 -99.9 -99.9 -99.9 -99.9 -99.9 -99.9
    31   Bw1 0.112 0.268 0.555 1.000 0.611  1.01 5.000  17.0  37.0 -99.9 -99.9 -99.9 -99.9 -99.9 -99.9

*70828       WISE        -99    -100 -99
@SITE        COUNTRY          LAT     LONG SCS FAMILY
-99          Bolivia      -19.570  -62.720 -99
@ SCOM  SALB  SLU1  SLDR  SLRO  SLNF  SLPF  SMHB  SMPX  SMKE
    BL  0.25  6.00  0.40   0.7  1.00  1.00 IB001 IB001 IB001
@  SLB  SLMH  SLLL  SDUL  SSAT  SRGF  SSKS  SBDM  SLOC  SLCL  SLSI  SLCF  SLNI  SLHW  SLHB  SCEC  SADC
    16    Ah 0.143 0.425 0.560 1.000 0.084  1.00   18.  24.0  41.0 -99.9 -99.9 -99.9 -99.9 -99.9 -99.9
    40   Bt1 0.169 0.348 0.560 1.000 0.249  1.00 7.000  30.0  40.0 -99.9 -99.9 -99.9 -99.9 -99.9 -99.9
    75   Bt2 0.209 0.392 0.560 0.280 0.123  1.00 8.000  39.0  32.0 -99.9 -99.9 -99.9 -99.9 -99.9 -99.9
   110   Bt3 0.156 0.294 0.479 0.400 0.163  1.24 2.000  27.0  38.0 -99.9 -99.9 -99.9 -99.9 -99.9 -99.9
   150    C1 0.121 0.262 0.484 0.300 0.286  1.22 2.000  19.0  46.0 -99.9 -99.9 -99.9 -99.9 -99.9 -99.9

*70935       WISE        -99    -100 -99
@SITE        COUNTRY          LAT     LONG SCS FAMILY
-99          Bolivia      -18.870  -68.200 -99
@ SCOM  SALB  SLU1  SLDR  SLRO  SLNF  SLPF  SMHB  SMPX  SMKE
    BL  0.25  6.00  0.40   0.7  1.00  1.00 IB001 IB001 IB001
@  SLB  SLMH  SLLL  SDUL  SSAT  SRGF  SSKS  SBDM  SLOC  SLCL  SLSI  SLCF  SLNI  SLHW  SLHB  SCEC  SADC
    13     A 0.040 0.132 0.404 1.000 0.581  1.46 1.000   8.0   4.0 -99.9 -99.9 -99.9 -99.9 -99.9 -99.9
    36    Bw 0.138 0.302 0.560 1.000 0.441  1.00 7.000  23.0  19.0 -99.9 -99.9 -99.9 -99.9 -99.9 -99.9

*71008       WISE        -99    -100 -99
@SITE        COUNTRY          LAT     LONG SCS FAMILY
-99          Bolivia      -18.430  -66.900 -99
@ SCOM  SALB  SLU1  SLDR  SLRO  SLNF  SLPF  SMHB  SMPX  SMKE
    BL  0.25  6.00  0.40   0.7  1.00  1.00 IB001 IB001 IB001
@  SLB  SLMH  SLLL  SDUL  SSAT  SRGF  SSKS  SBDM  SLOC  SLCL  SLSI  SLCF  SLNI  SLHW  SLHB  SCEC  SADC
    18    Ap 0.085 0.238 0.560 1.000 0.878  1.00 6.000  11.0  21.0 -99.9 -99.9 -99.9 -99.9 -99.9 -99.9
    41    A1 0.085 0.218 0.480 1.000 0.485  1.24 3.000  11.0  21.0 -99.9 -99.9 -99.9 -99.9 -99.9 -99.9
    66   Bw1 0.121 0.252 0.459 0.700 0.233  1.30 2.000  19.0  27.0 -99.9 -99.9 -99.9 -99.9 -99.9 -99.9
   105   Bw2 0.103 0.246 0.503 0.500 0.445  1.17 3.000  15.0  39.0 -99.9 -99.9 -99.9 -99.9 -99.9 -99.9

*71097       WISE        -99    -100 -99
@SITE        COUNTRY          LAT     LONG SCS FAMILY
-99          Bolivia      -21.630  -63.020 -99
@ SCOM  SALB  SLU1  SLDR  SLRO  SLNF  SLPF  SMHB  SMPX  SMKE
    BL  0.25  6.00  0.40   0.7  1.00  1.00 IB001 IB001 IB001
@  SLB  SLMH  SLLL  SDUL  SSAT  SRGF  SSKS  SBDM  SLOC  SLCL  SLSI  SLCF  SLNI  SLHW  SLHB  SCEC  SADC
    12    Ah 0.267 0.458 0.560 1.000 0.028  1.00 8.000  52.0  46.0 -99.9 -99.9 -99.9 -99.9 -99.9 -99.9
    42       0.307 0.444 0.487 1.000 0.002  1.22 2.000  61.0  37.0 -99.9 -99.9 -99.9 -99.9 -99.9 -99.9
    75   Bw1 0.298 0.437 0.487 0.280 0.003  1.22 2.000  59.0  39.0 -99.9 -99.9 -99.9 -99.9 -99.9 -99.9

*71098       WISE        -99    -100 -99
@SITE        COUNTRY          LAT     LONG SCS FAMILY
-99          Bolivia      -21.020  -62.480 -99
@ SCOM  SALB  SLU1  SLDR  SLRO  SLNF  SLPF  SMHB  SMPX  SMKE
    BL  0.25  6.00  0.40   0.7  1.00  1.00 IB001 IB001 IB001
@  SLB  SLMH  SLLL  SDUL  SSAT  SRGF  SSKS  SBDM  SLOC  SLCL  SLSI  SLCF  SLNI  SLHW  SLHB  SCEC  SADC
    60    Ah 0.143 0.294 0.552 1.000 0.430  1.02 5.000  24.0  28.0 -99.9 -99.9 -99.9 -99.9 -99.9 -99.9
    80    AC 0.147 0.292 0.497 0.500 0.219  1.19 2.000  25.0  51.0 -99.9 -99.9 -99.9 -99.9 -99.9 -99.9

*71099       WISE        -99    -100 -99
@SITE        COUNTRY          LAT     LONG SCS FAMILY
-99          Bolivia      -21.720  -67.320 -99
@ SCOM  SALB  SLU1  SLDR  SLRO  SLNF  SLPF  SMHB  SMPX  SMKE
    BL  0.25  6.00  0.40   0.7  1.00  1.00 IB001 IB001 IB001
@  SLB  SLMH  SLLL  SDUL  SSAT  SRGF  SSKS  SBDM  SLOC  SLCL  SLSI  SLCF  SLNI  SLHW  SLHB  SCEC  SADC
    15    Ah 0.156 0.481 0.560 1.000 0.020  1.00   24.  27.0  19.0 -99.9 -99.9 -99.9 -99.9 -99.9 -99.9
    25       0.169 0.434 0.560 1.000 0.065  1.00   18.  30.0  12.0 -99.9 -99.9 -99.9 -99.9 -99.9 -99.9

*71100       WISE        -99    -100 -99
@SITE        COUNTRY          LAT     LONG SCS FAMILY
-99          Bolivia      -20.400  -63.520 -99
@ SCOM  SALB  SLU1  SLDR  SLRO  SLNF  SLPF  SMHB  SMPX  SMKE
    BL  0.25  6.00  0.40   0.7  1.00  1.00 IB001 IB001 IB001
@  SLB  SLMH  SLLL  SDUL  SSAT  SRGF  SSKS  SBDM  SLOC  SLCL  SLSI  SLCF  SLNI  SLHW  SLHB  SCEC  SADC
    20    Ah 0.107 0.312 0.560 1.000 0.437  1.00   11.  16.0  26.0 -99.9 -99.9 -99.9 -99.9 -99.9 -99.9

*71101       WISE        -99    -100 -99
@SITE        COUNTRY          LAT     LONG SCS FAMILY
-99          Bolivia      -18.550  -68.880 -99
@ SCOM  SALB  SLU1  SLDR  SLRO  SLNF  SLPF  SMHB  SMPX  SMKE
    BL  0.25  6.00  0.40   0.7  1.00  1.00 IB001 IB001 IB001
@  SLB  SLMH  SLLL  SDUL  SSAT  SRGF  SSKS  SBDM  SLOC  SLCL  SLSI  SLCF  SLNI  SLHW  SLHB  SCEC  SADC
     5     A 0.042 0.142 0.435 1.000 0.721  1.37 2.000   3.0  10.0 -99.9 -99.9 -99.9 -99.9 -99.9 -99.9
    28    AC 0.057 0.180 0.433 1.000 0.477  1.37 2.000   9.0  13.0 -99.9 -99.9 -99.9 -99.9 -99.9 -99.9

*71102       WISE        -99    -100 -99
@SITE        COUNTRY          LAT     LONG SCS FAMILY
-99          Bolivia      -20.650  -68.330 -99
@ SCOM  SALB  SLU1  SLDR  SLRO  SLNF  SLPF  SMHB  SMPX  SMKE
    BL  0.25  6.00  0.40   0.7  1.00  1.00 IB001 IB001 IB001
@  SLB  SLMH  SLLL  SDUL  SSAT  SRGF  SSKS  SBDM  SLOC  SLCL  SLSI  SLCF  SLNI  SLHW  SLHB  SCEC  SADC
    30   Ahz 0.138 0.318 0.560 1.000 0.373  1.00 8.000  23.0  30.0 -99.9 -99.9 -99.9 -99.9 -99.9 -99.9
    50   ACz 0.107 0.264 0.556 0.800 0.643  1.01 5.000  16.0  39.0 -99.9 -99.9 -99.9 -99.9 -99.9 -99.9

*71103       WISE        -99    -100 -99
@SITE        COUNTRY          LAT     LONG SCS FAMILY
-99          Bolivia      -20.720  -66.630 -99
@ SCOM  SALB  SLU1  SLDR  SLRO  SLNF  SLPF  SMHB  SMPX  SMKE
    BL  0.25  6.00  0.40   0.7  1.00  1.00 IB001 IB001 IB001
@  SLB  SLMH  SLLL  SDUL  SSAT  SRGF  SSKS  SBDM  SLOC  SLCL  SLSI  SLCF  SLNI  SLHW  SLHB  SCEC  SADC
     9    Ah 0.116 1.043 0.560 1.000 0.000  1.00   88.  18.0  13.0 -99.9 -99.9 -99.9 -99.9 -99.9 -99.9
    22    Bt 0.138 0.364 0.560 1.000 0.220  1.00   14.  23.0  13.0 -99.9 -99.9 -99.9 -99.9 -99.9 -99.9

*71104       WISE        -99    -100 -99
@SITE        COUNTRY          LAT     LONG SCS FAMILY
-99          Bolivia      -15.580  -63.200 -99
@ SCOM  SALB  SLU1  SLDR  SLRO  SLNF  SLPF  SMHB  SMPX  SMKE
    BL  0.25  6.00  0.40   0.7  1.00  1.00 IB001 IB001 IB001
@  SLB  SLMH  SLLL  SDUL  SSAT  SRGF  SSKS  SBDM  SLOC  SLCL  SLSI  SLCF  SLNI  SLHW  SLHB  SCEC  SADC
     8    A1 0.156 0.554 0.560 1.000 0.000  1.00   29.  27.0  56.0 -99.9 -99.9 -99.9 -99.9 -99.9 -99.9
    28   Bt1 0.192 0.463 0.560 1.000 0.031  1.00   16.  35.0  51.0 -99.9 -99.9 -99.9 -99.9 -99.9 -99.9
    50   Bt2 0.200 0.395 0.560 0.320 0.120  1.00 8.000  37.0  49.0 -99.9 -99.9 -99.9 -99.9 -99.9 -99.9
   110    C1 0.227 0.386 0.544 0.200 0.098  1.05 4.000  43.0  54.0 -99.9 -99.9 -99.9 -99.9 -99.9 -99.9
   130    C2 0.129 0.261 0.462 0.300 0.210  1.29 2.000  21.0  28.0 -99.9 -99.9 -99.9 -99.9 -99.9 -99.9

*71106       WISE        -99    -100 -99
@SITE        COUNTRY          LAT     LONG SCS FAMILY
-99          Bolivia      -13.270  -68.580 -99
@ SCOM  SALB  SLU1  SLDR  SLRO  SLNF  SLPF  SMHB  SMPX  SMKE
    BL  0.25  6.00  0.40   0.7  1.00  1.00 IB001 IB001 IB001
@  SLB  SLMH  SLLL  SDUL  SSAT  SRGF  SSKS  SBDM  SLOC  SLCL  SLSI  SLCF  SLNI  SLHW  SLHB  SCEC  SADC
    27    Ah 0.191 0.360 0.543 1.000 0.156  1.05 4.000  24.0  75.0 -99.9 -99.9 -99.9 -99.9 -99.9 -99.9
    79   Bw1 0.258 0.441 0.560 0.280 0.044  1.00 7.000  50.0  49.0 -99.9 -99.9 -99.9 -99.9 -99.9 -99.9
   120   Bw2 0.168 0.325 0.487 0.400 0.112  1.22 2.000  22.0  76.0 -99.9 -99.9 -99.9 -99.9 -99.9 -99.9

*71107       WISE        -99    -100 -99
@SITE        COUNTRY          LAT     LONG SCS FAMILY
-99          Bolivia      -16.770  -67.800 -99
@ SCOM  SALB  SLU1  SLDR  SLRO  SLNF  SLPF  SMHB  SMPX  SMKE
    BL  0.25  6.00  0.40   0.7  1.00  1.00 IB001 IB001 IB001
@  SLB  SLMH  SLLL  SDUL  SSAT  SRGF  SSKS  SBDM  SLOC  SLCL  SLSI  SLCF  SLNI  SLHW  SLHB  SCEC  SADC
    30    C1 0.152 0.361 0.560 1.000 0.220  1.00 9.000  26.0  60.0 -99.9 -99.9 -99.9 -99.9 -99.9 -99.9
    52    C2 0.152 0.375 0.560 0.800 0.183  1.00   11.  26.0  51.0 -99.9 -99.9 -99.9 -99.9 -99.9 -99.9
    94    C3 0.165 0.364 0.560 0.500 0.204  1.00 8.000  29.0  59.0 -99.9 -99.9 -99.9 -99.9 -99.9 -99.9
   140    C4 0.174 0.429 0.560 0.400 0.071  1.00   14.  31.0  56.0 -99.9 -99.9 -99.9 -99.9 -99.9 -99.9
   160    C5 0.214 0.391 0.560 0.080 0.125  1.00 6.000  40.0  54.0 -99.9 -99.9 -99.9 -99.9 -99.9 -99.9

*71108       WISE        -99    -100 -99
@SITE        COUNTRY          LAT     LONG SCS FAMILY
-99          Bolivia      -13.900  -60.720 -99
@ SCOM  SALB  SLU1  SLDR  SLRO  SLNF  SLPF  SMHB  SMPX  SMKE
    BL  0.25  6.00  0.40   0.7  1.00  1.00 IB001 IB001 IB001
@  SLB  SLMH  SLLL  SDUL  SSAT  SRGF  SSKS  SBDM  SLOC  SLCL  SLSI  SLCF  SLNI  SLHW  SLHB  SCEC  SADC
    18    Ah 0.196 0.429 0.560 1.000 0.067  1.00   15.  36.0   6.0 -99.9 -99.9 -99.9 -99.9 -99.9 -99.9
    75       0.245 0.418 0.560 0.280 0.073  1.00 9.000  47.0   1.0 -99.9 -99.9 -99.9 -99.9 -99.9 -99.9
    90   Bt1 0.258 0.413 0.560 0.200 0.078  1.00 7.000  50.0   2.0 -99.9 -99.9 -99.9 -99.9 -99.9 -99.9
   130   Bt2 0.258 0.396 0.548 0.160 0.083  1.04 5.000  50.0   3.0 -99.9 -99.9 -99.9 -99.9 -99.9 -99.9

*71109       WISE        -99    -100 -99
@SITE        COUNTRY          LAT     LONG SCS FAMILY
-99          Bolivia      -15.080  -65.550 -99
@ SCOM  SALB  SLU1  SLDR  SLRO  SLNF  SLPF  SMHB  SMPX  SMKE
    BL  0.25  6.00  0.40   0.7  1.00  1.00 IB001 IB001 IB001
@  SLB  SLMH  SLLL  SDUL  SSAT  SRGF  SSKS  SBDM  SLOC  SLCL  SLSI  SLCF  SLNI  SLHW  SLHB  SCEC  SADC
    10    Ah 0.134 0.441 0.560 1.000 0.064  1.00   19.  22.0  66.0 -99.9 -99.9 -99.9 -99.9 -99.9 -99.9
    39  Bug1 0.178 0.367 0.560 1.000 0.190  1.00 7.000  32.0  58.0 -99.9 -99.9 -99.9 -99.9 -99.9 -99.9
    50  Bug2 0.236 0.394 0.545 0.320 0.086  1.05 4.000  45.0  51.0 -99.9 -99.9 -99.9 -99.9 -99.9 -99.9
   102  Bug3 0.236 0.381 0.488 0.200 0.031  1.21 2.000  45.0  52.0 -99.9 -99.9 -99.9 -99.9 -99.9 -99.9

*71110       WISE        -99    -100 -99
@SITE        COUNTRY          LAT     LONG SCS FAMILY
-99          Bolivia      -15.370  -67.120 -99
@ SCOM  SALB  SLU1  SLDR  SLRO  SLNF  SLPF  SMHB  SMPX  SMKE
    BL  0.25  6.00  0.40   0.7  1.00  1.00 IB001 IB001 IB001
@  SLB  SLMH  SLLL  SDUL  SSAT  SRGF  SSKS  SBDM  SLOC  SLCL  SLSI  SLCF  SLNI  SLHW  SLHB  SCEC  SADC
     6    Ah 0.107 0.922 0.560 1.000 0.000  1.00   74.  16.0  44.0 -99.9 -99.9 -99.9 -99.9 -99.9 -99.9
    16    A1 0.125 0.431 0.560 1.000 0.081  1.00   20.  20.0  48.0 -99.9 -99.9 -99.9 -99.9 -99.9 -99.9
    46   Bt1 0.178 0.436 0.560 0.800 0.060  1.00   15.  32.0  45.0 -99.9 -99.9 -99.9 -99.9 -99.9 -99.9
    64   Bt2 0.169 0.366 0.560 0.700 0.198  1.00 9.000  30.0  39.0 -99.9 -99.9 -99.9 -99.9 -99.9 -99.9
   110     C 0.178 0.340 0.549 0.500 0.227  1.03 4.000  32.0  59.0 -99.9 -99.9 -99.9 -99.9 -99.9 -99.9

*71111       WISE        -99    -100 -99
@SITE        COUNTRY          LAT     LONG SCS FAMILY
-99          Bolivia      -15.200  -66.520 -99
@ SCOM  SALB  SLU1  SLDR  SLRO  SLNF  SLPF  SMHB  SMPX  SMKE
    BL  0.25  6.00  0.40   0.7  1.00  1.00 IB001 IB001 IB001
@  SLB  SLMH  SLLL  SDUL  SSAT  SRGF  SSKS  SBDM  SLOC  SLCL  SLSI  SLCF  SLNI  SLHW  SLHB  SCEC  SADC
     5    Ah 0.116 0.614 0.560 1.000 0.000  1.00   39.  18.0  69.0 -99.9 -99.9 -99.9 -99.9 -99.9 -99.9
    25       0.192 0.456 0.560 1.000 0.037  1.00   15.  35.0  58.0 -99.9 -99.9 -99.9 -99.9 -99.9 -99.9
    40   Bt1 0.169 0.342 0.560 0.800 0.267  1.00 5.000  30.0  64.0 -99.9 -99.9 -99.9 -99.9 -99.9 -99.9
    55    C1 0.089 0.233 0.501 0.700 0.517  1.17 3.000  12.0  40.0 -99.9 -99.9 -99.9 -99.9 -99.9 -99.9
   100    C2 0.089 0.227 0.468 0.500 0.381  1.27 2.000  12.0  40.0 -99.9 -99.9 -99.9 -99.9 -99.9 -99.9

*71112       WISE        -99    -100 -99
@SITE        COUNTRY          LAT     LONG SCS FAMILY
-99          Bolivia      -11.130  -69.350 -99
@ SCOM  SALB  SLU1  SLDR  SLRO  SLNF  SLPF  SMHB  SMPX  SMKE
    BL  0.25  6.00  0.40   0.7  1.00  1.00 IB001 IB001 IB001
@  SLB  SLMH  SLLL  SDUL  SSAT  SRGF  SSKS  SBDM  SLOC  SLCL  SLSI  SLCF  SLNI  SLHW  SLHB  SCEC  SADC
    12   Ah1 0.125 0.442 0.560 1.000 0.066  1.00   22.  20.0  36.0 -99.9 -99.9 -99.9 -99.9 -99.9 -99.9
    45   Ah2 0.161 0.401 0.560 1.000 0.121  1.00   14.  28.0  35.0 -99.9 -99.9 -99.9 -99.9 -99.9 -99.9
    70   Bt1 0.200 0.329 0.440 0.280 0.035  1.35 1.000  37.0  32.0 -99.9 -99.9 -99.9 -99.9 -99.9 -99.9
   120   Bt2 0.267 0.392 0.436 0.160 0.002  1.37 1.000  52.0  24.0 -99.9 -99.9 -99.9 -99.9 -99.9 -99.9

*71113       WISE        -99    -100 -99
@SITE        COUNTRY          LAT     LONG SCS FAMILY
-99          Bolivia      -10.280  -65.600 -99
@ SCOM  SALB  SLU1  SLDR  SLRO  SLNF  SLPF  SMHB  SMPX  SMKE
    BL  0.25  6.00  0.40   0.7  1.00  1.00 IB001 IB001 IB001
@  SLB  SLMH  SLLL  SDUL  SSAT  SRGF  SSKS  SBDM  SLOC  SLCL  SLSI  SLCF  SLNI  SLHW  SLHB  SCEC  SADC
    15   Ah1 0.258 0.561 0.560 1.000 0.000  1.00   22.  50.0  12.0 -99.9 -99.9 -99.9 -99.9 -99.9 -99.9
    46   Ah2 0.272 0.451 0.560 0.320 0.034  1.00 9.000  53.0  11.0 -99.9 -99.9 -99.9 -99.9 -99.9 -99.9
    85   Bw1 0.280 0.397 0.419 0.200 0.000  1.42 1.000  55.0   9.0 -99.9 -99.9 -99.9 -99.9 -99.9 -99.9

*71115       WISE        -99    -100 -99
@SITE        COUNTRY          LAT     LONG SCS FAMILY
-99          Bolivia      -17.050  -66.650 -99
@ SCOM  SALB  SLU1  SLDR  SLRO  SLNF  SLPF  SMHB  SMPX  SMKE
    BL  0.25  6.00  0.40   0.7  1.00  1.00 IB001 IB001 IB001
@  SLB  SLMH  SLLL  SDUL  SSAT  SRGF  SSKS  SBDM  SLOC  SLCL  SLSI  SLCF  SLNI  SLHW  SLHB  SCEC  SADC
     6   Ah1 0.223 0.671 0.560 1.000 0.000  1.00   35.  42.0  44.0 -99.9 -99.9 -99.9 -99.9 -99.9 -99.9
    30   Ah2 0.240 0.557 0.560 1.000 0.000  1.00   21.  46.0  48.0 -99.9 -99.9 -99.9 -99.9 -99.9 -99.9

*71377       WISE        -99    -100 -99
@SITE        COUNTRY          LAT     LONG SCS FAMILY
-99          Bolivia      -17.970  -68.700 -99
@ SCOM  SALB  SLU1  SLDR  SLRO  SLNF  SLPF  SMHB  SMPX  SMKE
    BL  0.25  6.00  0.40   0.7  1.00  1.00 IB001 IB001 IB001
@  SLB  SLMH  SLLL  SDUL  SSAT  SRGF  SSKS  SBDM  SLOC  SLCL  SLSI  SLCF  SLNI  SLHW  SLHB  SCEC  SADC
    22    A1 0.094 0.314 0.560 1.000 0.448  1.00   13.  13.0  22.0 -99.9 -99.9 -99.9 -99.9 -99.9 -99.9
    41   Bw1 0.112 0.252 0.519 0.800 0.484  1.12 4.000  17.0  23.0 -99.9 -99.9 -99.9 -99.9 -99.9 -99.9

*71378       WISE        -99    -100 -99
@SITE        COUNTRY          LAT     LONG SCS FAMILY
-99          Bolivia      -17.220  -60.900 -99
@ SCOM  SALB  SLU1  SLDR  SLRO  SLNF  SLPF  SMHB  SMPX  SMKE
    BL  0.25  6.00  0.40   0.7  1.00  1.00 IB001 IB001 IB001
@  SLB  SLMH  SLLL  SDUL  SSAT  SRGF  SSKS  SBDM  SLOC  SLCL  SLSI  SLCF  SLNI  SLHW  SLHB  SCEC  SADC
     8   Ah1 0.094 0.235 0.538 1.000 0.717  1.07 5.000  13.0  12.0 -99.9 -99.9 -99.9 -99.9 -99.9 -99.9
    40   Ah2 0.052 0.171 0.425 1.000 0.488  1.40 1.000  15.0   4.0 -99.9 -99.9 -99.9 -99.9 -99.9 -99.9

*71379       WISE        -99    -100 -99
@SITE        COUNTRY          LAT     LONG SCS FAMILY
-99          Bolivia      -17.680  -60.870 -99
@ SCOM  SALB  SLU1  SLDR  SLRO  SLNF  SLPF  SMHB  SMPX  SMKE
    BL  0.25  6.00  0.40   0.7  1.00  1.00 IB001 IB001 IB001
@  SLB  SLMH  SLLL  SDUL  SSAT  SRGF  SSKS  SBDM  SLOC  SLCL  SLSI  SLCF  SLNI  SLHW  SLHB  SCEC  SADC
    22   Ah1 0.112 0.259 0.560 1.000 0.691  1.00 6.000  17.0   8.0 -99.9 -99.9 -99.9 -99.9 -99.9 -99.9
    49   Ah2 0.116 0.248 0.515 0.800 0.477  1.13 4.000  18.0   7.0 -99.9 -99.9 -99.9 -99.9 -99.9 -99.9

*71380       WISE        -99    -100 -99