*IBSB910015  SCS         -99     180 Millhopper Fine Sand
@SITE        COUNTRY          LAT     LONG SCS FAMILY
 Gainesville USA            29.630 -82.370 Loamy,silic,hyperth Gross. Paleudults
@ SCOM  SALB  SLU1  SLDR  SLRO  SLNF  SLPF  SMHB  SMPX  SMKE
   -99  0.18   5.0  0.50  66.0  1.00  0.92 IB001 IB001 IB001
@  SLB  SLMH  SLLL  SDUL  SSAT  SRGF  SSKS  SBDM  SLOC  SLCL  SLSI  SLCF  SLNI  SLHW  SLHB  SCEC  SADC
     5   -99 0.023 0.086 0.230 1.000  7.40  1.36  0.90   0.9  11.8   -99   -99   5.3   -99   -99   -99 
    15   -99 0.023 0.086 0.230 1.000  7.40  1.40  0.69   0.9  11.8   -99   -99   5.4   -99   -99   -99 
    30   -99 0.023 0.086 0.230 0.498 15.80  1.46  0.28   4.6   6.4   -99   -99   5.7   -99   -99   -99 
    45   -99 0.023 0.086 0.230 0.294 28.00  1.46  0.20   5.8   5.4   -99   -99   5.8   -99   -99   -99 
    60   -99 0.023 0.086 0.230 0.294 28.00  1.47  0.20   5.8   5.4   -99   -99   5.8   -99   -99   -99 
    90   -99 0.021 0.076 0.230 0.380 27.60  1.43  0.09   9.6   4.2   -99   -99   5.9   -99   -99   -99 
   120   -99 0.020 0.076 0.230 0.133 17.50  1.48  0.03   9.6   4.2   -99   -99   5.9   -99   -99   -99 
   150   -99 0.027 0.130 0.230 0.062  0.30  1.57  0.03   8.3   3.6   -99   -99   5.9   -99   -99   -99 
   180   -99 0.070 0.258 0.360 0.031  0.10  1.79  0.03   8.3   3.6   -99   -99   5.9   -99   -99   -99 


*SOILS: General DSSAT Soil Input File


!Suelos Benito Juárez (loc_1)

*BJ00000001  Azul        -99     -99                                                   
@SITE        COUNTRY          LAT     LONG SCS FAMILY
 MFIERRO     ARGENTINA    -37.200  -59.800 Argiudol tipico                                   
@ SCOM  SALB  SLU1  SLDR  SLRO  SLNF  SLPF  SMHB  SMPX  SMKE
   -99  0.13    10  0.40    82  0.40  1.00 IB001 IB001 IB001
@  SLB  SLMH  SLLL  SDUL  SSAT  SRGF  SSKS  SBDM  SLOC  SLCL  SLSI  SLCF  SLNI  SLHW  SLHB  SCEC  SADC
    21    AP 0.171 0.316 0.519  1.00 -99.0  1.07  3.50  30.3  34.7   0.0 -99.0   6.3 -99.0 -99.0 -99.0
    30    B1 0.189 0.322 0.469  1.00 -99.0  1.21  2.00  34.4  28.6   0.0 -99.0   6.6 -99.0 -99.0 -99.0
    60   B2T 0.250 0.372 0.407  0.14 -99.0  1.38  0.30  48.1  26.5   0.0 -99.0   7.3 -99.0 -99.0 -99.0
@  SLB  SLPX  SLPT  SLPO CACO3  SLAL  SLFE  SLMN  SLBS  SLPA  SLPB  SLKE  SLMG  SLNA  SLSU  SLEC  SLCA
    21 -99.0 -99.0 -99.0 -99.0 -99.0 -99.0 -99.0 -99.0 -99.0 -99.0 -99.0 -99.0 -99.0 -99.0 -99.0 -99.0
    30 -99.0 -99.0 -99.0 -99.0 -99.0 -99.0 -99.0 -99.0 -99.0 -99.0 -99.0 -99.0 -99.0 -99.0 -99.0 -99.0
    60 -99.0 -99.0 -99.0 -99.0 -99.0 -99.0 -99.0 -99.0 -99.0 -99.0 -99.0 -99.0 -99.0 -99.0 -99.0 -99.0

*BJ00000002  Laprida     -99     -99                                                   
@SITE        COUNTRY          LAT     LONG SCS FAMILY
 TARROYOS    ARGENTINA    -37.600  -60.800 Argiudol tipico                                   
@ SCOM  SALB  SLU1  SLDR  SLRO  SLNF  SLPF  SMHB  SMPX  SMKE
   -99  0.13    10  0.40    79  0.40  1.00 IB001 IB001 IB001
@  SLB  SLMH  SLLL  SDUL  SSAT  SRGF  SSKS  SBDM  SLOC  SLCL  SLSI  SLCF  SLNI  SLHW  SLHB  SCEC  SADC
    15    AP 0.148 0.291 0.499  1.00 -99.0  1.12  2.60  25.1  41.5   0.0 -99.0   6.6 -99.0 -99.0 -99.0
    30    A1 0.171 0.304 0.456  1.00 -99.0  1.24  1.50  30.4  33.8   0.0 -99.0   6.6 -99.0 -99.0 -99.0
    37    B1 0.171 0.301 0.434  0.39 -99.0  1.30  0.95  30.4  33.4   0.0 -99.0   6.5 -99.0 -99.0 -99.0
    60   B2T 0.188 0.309 0.397  0.35 -99.0  1.41  0.40  34.3  22.5   0.0 -99.0   6.9 -99.0 -99.0 -99.0
    90    B3 0.130 0.259 0.405  0.34 -99.0  1.39  0.30  21.2  37.9   0.0 -99.0   7.0 -99.0 -99.0 -99.0
   120     C 0.119 0.244 0.387  0.42 -99.0  1.44  0.20  18.6  32.5   0.0 -99.0   7.4 -99.0 -99.0 -99.0
@  SLB  SLPX  SLPT  SLPO CACO3  SLAL  SLFE  SLMN  SLBS  SLPA  SLPB  SLKE  SLMG  SLNA  SLSU  SLEC  SLCA
    15 -99.0 -99.0 -99.0 -99.0 -99.0 -99.0 -99.0 -99.0 -99.0 -99.0 -99.0 -99.0 -99.0 -99.0 -99.0 -99.0
    30 -99.0 -99.0 -99.0 -99.0 -99.0 -99.0 -99.0 -99.0 -99.0 -99.0 -99.0 -99.0 -99.0 -99.0 -99.0 -99.0
    37 -99.0 -99.0 -99.0 -99.0 -99.0 -99.0 -99.0 -99.0 -99.0 -99.0 -99.0 -99.0 -99.0 -99.0 -99.0 -99.0
    60 -99.0 -99.0 -99.0 -99.0 -99.0 -99.0 -99.0 -99.0 -99.0 -99.0 -99.0 -99.0 -99.0 -99.0 -99.0 -99.0
    90 -99.0 -99.0 -99.0 -99.0 -99.0 -99.0 -99.0 -99.0 -99.0 -99.0 -99.0 -99.0 -99.0 -99.0 -99.0 -99.0
   120 -99.0 -99.0 -99.0 -99.0 -99.0 -99.0 -99.0 -99.0 -99.0 -99.0 -99.0 -99.0 -99.0 -99.0 -99.0 -99.0

*BJ00000003  Ramon       Santa   -99                                                   
@SITE        COUNTRY          LAT     LONG SCS FAMILY
 SCAYETANO   ARGENTINA    -38.400  -59.500 Argiudol tipico                                   
@ SCOM  SALB  SLU1  SLDR  SLRO  SLNF  SLPF  SMHB  SMPX  SMKE
   -99  0.13    10  0.40    79  0.40  1.00 IB001 IB001 IB001
@  SLB  SLMH  SLLL  SDUL  SSAT  SRGF  SSKS  SBDM  SLOC  SLCL  SLSI  SLCF  SLNI  SLHW  SLHB  SCEC  SADC
    18    AP 0.136 0.264 0.444  1.00 -99.0  1.28  1.70  22.5  23.3   0.0 -99.0   6.0 -99.0 -99.0 -99.0
    36   B2T 0.174 0.296 0.409  0.41 -99.0  1.37  0.70  31.0  23.1   0.0 -99.0   6.6 -99.0 -99.0 -99.0
    45    B3 0.137 0.259 0.386  0.45 -99.0  1.44  0.30  22.6  26.0   0.0 -99.0   6.9 -99.0 -99.0 -99.0
    65    B3 0.137 0.258 0.381  0.40 -99.0  1.45  0.20  22.6  26.0   0.0 -99.0   6.9 -99.0 -99.0 -99.0
    90     C 0.108 0.230 0.368  0.55 -99.0  1.49  0.10  16.2  26.9   0.0 -99.0   7.2 -99.0 -99.0 -99.0
   120     C 0.108 0.230 0.365  0.42 -99.0  1.50  0.05  16.2  26.9   0.0 -99.0   7.2 -99.0 -99.0 -99.0
   140     C 0.108 0.230 0.365  0.32 -99.0  1.50  0.05  16.2  26.9   0.0 -99.0   7.2 -99.0 -99.0 -99.0
@  SLB  SLPX  SLPT  SLPO CACO3  SLAL  SLFE  SLMN  SLBS  SLPA  SLPB  SLKE  SLMG  SLNA  SLSU  SLEC  SLCA
    18 -99.0 -99.0 -99.0 -99.0 -99.0 -99.0 -99.0 -99.0 -99.0 -99.0 -99.0 -99.0 -99.0 -99.0 -99.0 -99.0
    36 -99.0 -99.0 -99.0 -99.0 -99.0 -99.0 -99.0 -99.0 -99.0 -99.0 -99.0 -99.0 -99.0 -99.0 -99.0 -99.0
    45 -99.0 -99.0 -99.0 -99.0 -99.0 -99.0 -99.0 -99.0 -99.0 -99.0 -99.0 -99.0 -99.0 -99.0 -99.0 -99.0
    65 -99.0 -99.0 -99.0 -99.0 -99.0 -99.0 -99.0 -99.0 -99.0 -99.0 -99.0 -99.0 -99.0 -99.0 -99.0 -99.0
    90 -99.0 -99.0 -99.0 -99.0 -99.0 -99.0 -99.0 -99.0 -99.0 -99.0 -99.0 -99.0 -99.0 -99.0 -99.0 -99.0
   120 -99.0 -99.0 -99.0 -99.0 -99.0 -99.0 -99.0 -99.0 -99.0 -99.0 -99.0 -99.0 -99.0 -99.0 -99.0 -99.0
   140 -99.0 -99.0 -99.0 -99.0 -99.0 -99.0 -99.0 -99.0 -99.0 -99.0 -99.0 -99.0 -99.0 -99.0 -99.0 -99.0


!Suelos Coronel Suárez (loc_2)

*CS00000001  La          Colin   -99                                                   
@SITE        COUNTRY          LAT     LONG SCS FAMILY
 BORDENAVE   ARGENTINA    -37.400  -61.500 Hapludol tpico                                   
@ SCOM  SALB  SLU1  SLDR  SLRO  SLNF  SLPF  SMHB  SMPX  SMKE
   -99  0.13    10  0.40    76  0.40  1.00 IB001 IB001 IB001
@  SLB  SLMH  SLLL  SDUL  SSAT  SRGF  SSKS  SBDM  SLOC  SLCL  SLSI  SLCF  SLNI  SLHW  SLHB  SCEC  SADC
    30    A1 0.134 0.283 0.521  1.00 -99.0  1.06  3.50  22.0  40.6   0.0 -99.0   6.8 -99.0 -99.0 -99.0
    45    B2 0.134 0.268 0.446  0.46 -99.0  1.27  1.20  22.1  39.4   0.0 -99.0   7.0 -99.0 -99.0 -99.0
    54    B2 0.134 0.265 0.422  0.42 -99.0  1.34  0.60  22.1  39.4   0.0 -99.0   7.0 -99.0 -99.0 -99.0
    74    B3 0.127 0.255 0.401  0.62 -99.0  1.40  0.20  20.4  38.7   0.0 -99.0   7.5 -99.0 -99.0 -99.0
   100    C1 0.105 0.235 0.396  0.10 -99.0  1.41  0.10  15.6  41.6   0.0 -99.0   8.2 -99.0 -99.0 -99.0
   110    C1 0.105 0.235 0.396  0.10 -99.0  1.41  0.10  15.6  41.6   0.0 -99.0   8.2 -99.0 -99.0 -99.0
   120  C2CA 0.083 0.208 0.368  0.08 -99.0  1.49  0.05  10.6  33.8   0.0 -99.0   9.1 -99.0 -99.0 -99.0
   140  C2CA 0.083 0.208 0.368  0.06 -99.0  1.49  0.05  10.6  33.8   0.0 -99.0   9.1 -99.0 -99.0 -99.0
@  SLB  SLPX  SLPT  SLPO CACO3  SLAL  SLFE  SLMN  SLBS  SLPA  SLPB  SLKE  SLMG  SLNA  SLSU  SLEC  SLCA
    30 -99.0 -99.0 -99.0 -99.0 -99.0 -99.0 -99.0 -99.0 -99.0 -99.0 -99.0 -99.0 -99.0 -99.0 -99.0 -99.0
    45 -99.0 -99.0 -99.0 -99.0 -99.0 -99.0 -99.0 -99.0 -99.0 -99.0 -99.0 -99.0 -99.0 -99.0 -99.0 -99.0
    54 -99.0 -99.0 -99.0 -99.0 -99.0 -99.0 -99.0 -99.0 -99.0 -99.0 -99.0 -99.0 -99.0 -99.0 -99.0 -99.0
    74 -99.0 -99.0 -99.0 -99.0 -99.0 -99.0 -99.0 -99.0 -99.0 -99.0 -99.0 -99.0 -99.0 -99.0 -99.0 -99.0
   100 -99.0 -99.0 -99.0 -99.0 -99.0 -99.0 -99.0 -99.0 -99.0 -99.0 -99.0 -99.0 -99.0 -99.0 -99.0 -99.0
   110 -99.0 -99.0 -99.0 -99.0 -99.0 -99.0 -99.0 -99.0 -99.0 -99.0 -99.0 -99.0 -99.0 -99.0 -99.0 -99.0
   120 -99.0 -99.0 -99.0 -99.0 -99.0 -99.0 -99.0 -99.0 -99.0 -99.0 -99.0 -99.0 -99.0 -99.0 -99.0 -99.0
   140 -99.0 -99.0 -99.0 -99.0 -99.0 -99.0 -99.0 -99.0 -99.0 -99.0 -99.0 -99.0 -99.0 -99.0 -99.0 -99.0

*CS00000002  Guamin     -99     -99                                                   
@SITE        COUNTRY          LAT     LONG SCS FAMILY
 GUAMINI     ARGENTINA    -37.100  -62.400 Hapludol ntico                                   
@ SCOM  SALB  SLU1  SLDR  SLRO  SLNF  SLPF  SMHB  SMPX  SMKE
   -99  0.13    10  0.60    73  0.40  1.00 IB001 IB001 IB001
@  SLB  SLMH  SLLL  SDUL  SSAT  SRGF  SSKS  SBDM  SLOC  SLCL  SLSI  SLCF  SLNI  SLHW  SLHB  SCEC  SADC
    18    A1 0.124 0.255 0.454  1.00 -99.0  1.25  1.90  19.8  27.7   0.0 -99.0   7.1 -99.0 -99.0 -99.0
    30    AC 0.113 0.237 0.416  1.00 -99.0  1.36  1.20  17.3  21.5   0.0 -99.0   7.6 -99.0 -99.0 -99.0
    45    AC 0.113 0.234 0.388  0.77 -99.0  1.43  0.60  17.3  21.5   0.0 -99.0   7.6 -99.0 -99.0 -99.0
    60     C 0.110 0.229 0.378  0.69 -99.0  1.46  0.50  16.6  17.9   0.0 -99.0   8.0 -99.0 -99.0 -99.0
    75     C 0.110 0.228 0.362  0.56 -99.0  1.51  0.20  16.6  17.9   0.0 -99.0   8.0 -99.0 -99.0 -99.0
    90     C 0.110 0.228 0.362  0.56 -99.0  1.51  0.20  16.6  17.9   0.0 -99.0   8.0 -99.0 -99.0 -99.0
   100     C 0.110 0.227 0.356  0.47 -99.0  1.52  0.10  16.6  17.9   0.0 -99.0   8.0 -99.0 -99.0 -99.0
@  SLB  SLPX  SLPT  SLPO CACO3  SLAL  SLFE  SLMN  SLBS  SLPA  SLPB  SLKE  SLMG  SLNA  SLSU  SLEC  SLCA
    18 -99.0 -99.0 -99.0 -99.0 -99.0 -99.0 -99.0 -99.0 -99.0 -99.0 -99.0 -99.0 -99.0 -99.0 -99.0 -99.0
    30 -99.0 -99.0 -99.0 -99.0 -99.0 -99.0 -99.0 -99.0 -99.0 -99.0 -99.0 -99.0 -99.0 -99.0 -99.0 -99.0
    45 -99.0 -99.0 -99.0 -99.0 -99.0 -99.0 -99.0 -99.0 -99.0 -99.0 -99.0 -99.0 -99.0 -99.0 -99.0 -99.0
    60 -99.0 -99.0 -99.0 -99.0 -99.0 -99.0 -99.0 -99.0 -99.0 -99.0 -99.0 -99.0 -99.0 -99.0 -99.0 -99.0
    75 -99.0 -99.0 -99.0 -99.0 -99.0 -99.0 -99.0 -99.0 -99.0 -99.0 -99.0 -99.0 -99.0 -99.0 -99.0 -99.0
    90 -99.0 -99.0 -99.0 -99.0 -99.0 -99.0 -99.0 -99.0 -99.0 -99.0 -99.0 -99.0 -99.0 -99.0 -99.0 -99.0
   100 -99.0 -99.0 -99.0 -99.0 -99.0 -99.0 -99.0 -99.0 -99.0 -99.0 -99.0 -99.0 -99.0 -99.0 -99.0 -99.0

*CS00000003  Laprida     -99     -99                                                   
@SITE        COUNTRY          LAT     LONG SCS FAMILY
 BORDENAVE   ARGENTINA    -37.600  -60.800 Argiudol tpico                                   
@ SCOM  SALB  SLU1  SLDR  SLRO  SLNF  SLPF  SMHB  SMPX  SMKE
   -99  0.13    18  0.15    76  0.40  1.00 IB001 IB001 IB001
@  SLB  SLMH  SLLL  SDUL  SSAT  SRGF  SSKS  SBDM  SLOC  SLCL  SLSI  SLCF  SLNI  SLHW  SLHB  SCEC  SADC
    15    AP 0.148 0.291 0.499  1.00 -99.0  1.12  2.60  25.1  41.5   0.0 -99.0   6.6 -99.0 -99.0 -99.0
    30    A1 0.171 0.304 0.456  1.00 -99.0  1.24  1.50  30.4  33.8   0.0 -99.0   6.6 -99.0 -99.0 -99.0
    37    B1 0.171 0.301 0.434  0.39 -99.0  1.30  0.95  30.4  33.4   0.0 -99.0   6.5 -99.0 -99.0 -99.0
    45   B2T 0.188 0.309 0.397  0.35 -99.0  1.41  0.40  34.3  22.5   0.0 -99.0   6.9 -99.0 -99.0 -99.0
    60   B2T 0.188 0.309 0.397  0.35 -99.0  1.41  0.40  34.3  22.5   0.0 -99.0   6.9 -99.0 -99.0 -99.0
    75    B3 0.130 0.259 0.405  0.34 -99.0  1.39  0.30  21.2  37.9   0.0 -99.0   7.0 -99.0 -99.0 -99.0
    90    B3 0.130 0.259 0.405  0.34 -99.0  1.39  0.30  21.2  37.9   0.0 -99.0   7.0 -99.0 -99.0 -99.0
   120     C 0.119 0.244 0.387  0.42 -99.0  1.44  0.20  18.6  32.5   0.0 -99.0   7.4 -99.0 -99.0 -99.0
@  SLB  SLPX  SLPT  SLPO CACO3  SLAL  SLFE  SLMN  SLBS  SLPA  SLPB  SLKE  SLMG  SLNA  SLSU  SLEC  SLCA
    15 -99.0 -99.0 -99.0 -99.0 -99.0 -99.0 -99.0 -99.0 -99.0 -99.0 -99.0 -99.0 -99.0 -99.0 -99.0 -99.0
    30 -99.0 -99.0 -99.0 -99.0 -99.0 -99.0 -99.0 -99.0 -99.0 -99.0 -99.0 -99.0 -99.0 -99.0 -99.0 -99.0
    37 -99.0 -99.0 -99.0 -99.0 -99.0 -99.0 -99.0 -99.0 -99.0 -99.0 -99.0 -99.0 -99.0 -99.0 -99.0 -99.0
    45 -99.0 -99.0 -99.0 -99.0 -99.0 -99.0 -99.0 -99.0 -99.0 -99.0 -99.0 -99.0 -99.0 -99.0 -99.0 -99.0
    60 -99.0 -99.0 -99.0 -99.0 -99.0 -99.0 -99.0 -99.0 -99.0 -99.0 -99.0 -99.0 -99.0 -99.0 -99.0 -99.0
    75 -99.0 -99.0 -99.0 -99.0 -99.0 -99.0 -99.0 -99.0 -99.0 -99.0 -99.0 -99.0 -99.0 -99.0 -99.0 -99.0
    90 -99.0 -99.0 -99.0 -99.0 -99.0 -99.0 -99.0 -99.0 -99.0 -99.0 -99.0 -99.0 -99.0 -99.0 -99.0 -99.0
   120 -99.0 -99.0 -99.0 -99.0 -99.0 -99.0 -99.0 -99.0 -99.0 -99.0 -99.0 -99.0 -99.0 -99.0 -99.0 -99.0


!Suelos Gualeguaychú (loc_3)

*GU00000001  SCS         Closa   155 LA CONCORDIA Pendiente 1-3%                       
@SITE        COUNTRY          LAT     LONG SCS FAMILY
 ENTRE_RIOS  ARGENTINA     30.000   62.000 PELUDERT ARGICO                                   
@ SCOM  SALB  SLU1  SLDR  SLRO  SLNF  SLPF  SMHB  SMPX  SMKE
    BN  0.13    11  0.40    86  0.60  1.00 IB001 IB001 IB001
@  SLB  SLMH  SLLL  SDUL  SSAT  SRGF  SSKS  SBDM  SLOC  SLCL  SLSI  SLCF  SLNI  SLHW  SLHB  SCEC  SADC
    15    A1 0.207 0.345 0.387  1.00 -99.0  1.22  3.10  38.6  59.1   0.0 -99.0   7.2   6.9  36.1 -99.0
    20    A2 0.210 0.347 0.387  0.40 -99.0  1.22  2.00  39.1  58.8   0.0 -99.0   7.4   6.9  39.2 -99.0
    30    BT 0.266 0.397 0.412  0.10 -99.0  1.22  1.30  51.7  46.1   0.0 -99.0   7.5   6.8  45.0 -99.0
    45    BT 0.266 0.397 0.412  0.08 -99.0  1.22  1.30  51.7  46.1   0.0 -99.0   7.5   6.8  45.0 -99.0
    60    BT 0.256 0.388 0.403  0.07 -99.0  1.22  1.00  49.5  48.4   0.0 -99.0   7.6   6.9  40.4 -99.0
    90    B3 0.264 0.395 0.410  0.05 -99.0  1.23  0.70  51.3  47.1   0.0 -99.0   8.0   7.2  43.9 -99.0
   120    B3 0.257 0.388 0.403  0.04 -99.0  1.22  0.05  49.8  46.2   0.0 -99.0   7.7   7.0  37.0 -99.0
   150     C 0.260 0.392 0.407  0.03 -99.0  1.23  0.05  50.4  48.7   0.0 -99.0   8.2   7.1  37.2 -99.0
   180     C 0.260 0.392 0.407  0.02 -99.0  1.23  0.05  50.4  48.7   0.0 -99.0   8.2   7.1  37.2 -99.0
@  SLB  SLPX  SLPT  SLPO CACO3  SLAL  SLFE  SLMN  SLBS  SLPA  SLPB  SLKE  SLMG  SLNA  SLSU  SLEC  SLCA
    15 -99.0 -99.0 -99.0 -99.0 -99.0 -99.0 -99.0 -99.0 -99.0 -99.0 -99.0 -99.0 -99.0 -99.0 -99.0 -99.0
    20 -99.0 -99.0 -99.0 -99.0 -99.0 -99.0 -99.0 -99.0 -99.0 -99.0 -99.0 -99.0 -99.0 -99.0 -99.0 -99.0
    30 -99.0 -99.0 -99.0 -99.0 -99.0 -99.0 -99.0 -99.0 -99.0 -99.0 -99.0 -99.0 -99.0 -99.0 -99.0 -99.0
    45 -99.0 -99.0 -99.0 -99.0 -99.0 -99.0 -99.0 -99.0 -99.0 -99.0 -99.0 -99.0 -99.0 -99.0 -99.0 -99.0
    60 -99.0 -99.0 -99.0 -99.0 -99.0 -99.0 -99.0 -99.0 -99.0 -99.0 -99.0 -99.0 -99.0 -99.0 -99.0 -99.0
    90 -99.0 -99.0 -99.0 -99.0 -99.0 -99.0 -99.0 -99.0 -99.0 -99.0 -99.0 -99.0 -99.0 -99.0 -99.0 -99.0
   120 -99.0 -99.0 -99.0 -99.0 -99.0 -99.0 -99.0 -99.0 -99.0 -99.0 -99.0 -99.0 -99.0 -99.0 -99.0 -99.0
   150 -99.0 -99.0 -99.0 -99.0 -99.0 -99.0 -99.0 -99.0 -99.0 -99.0 -99.0 -99.0 -99.0 -99.0 -99.0 -99.0
   180 -99.0 -99.0 -99.0 -99.0 -99.0 -99.0 -99.0 -99.0 -99.0 -99.0 -99.0 -99.0 -99.0 -99.0 -99.0 -99.0

*GU00000002  SCS         CLOSA   133 LA BLANQUEADA Pendiente 0-1%                      
@SITE        COUNTRY          LAT     LONG SCS FAMILY
 ENTRE_RIOS  ARGENTINA     30.000   62.000 ARGIUDOL VERTICO                                  
@ SCOM  SALB  SLU1  SLDR  SLRO  SLNF  SLPF  SMHB  SMPX  SMKE
    BN  0.13    11  0.40    83  0.60  1.00 IB001 IB001 IB001
@  SLB  SLMH  SLLL  SDUL  SSAT  SRGF  SSKS  SBDM  SLOC  SLCL  SLSI  SLCF  SLNI  SLHW  SLHB  SCEC  SADC
    15    AP 0.197 0.334 0.392  1.00 -99.0  1.21  2.70  36.2  58.1   0.0 -99.0   7.2   6.2  35.5 -99.0
    30    A1 0.165 0.308 0.388  0.60 -99.0  1.22  2.00  29.1  68.1   0.0 -99.0   6.7   5.8  31.8 -99.0
    45    BT 0.226 0.361 0.387  0.32 -99.0  1.22  1.40  42.7  55.4   0.0 -99.0   7.0   5.6  37.9 -99.0
    60    BT 0.226 0.361 0.387  0.28 -99.0  1.22  1.40  42.7  55.4   0.0 -99.0   7.0   5.6  37.9 -99.0
    90    BT 0.257 0.389 0.404  0.05 -99.0  1.23  0.90  49.7  48.6   0.0 -99.0   7.4   6.2  40.3 -99.0
   105    B3 0.245 0.379 0.394  0.08 -99.0  1.22  0.55  47.2  50.4   0.0 -99.0   7.8   6.6  39.4 -99.0
   120    B3 0.232 0.367 0.387  0.08 -99.0  1.22  0.05  44.2  53.6   0.0 -99.0   8.1   6.9  35.0 -99.0
   150     C 0.237 0.371 0.386  0.06 -99.0  1.23  0.05  45.2  53.5   0.0 -99.0   7.9   6.5  34.8 -99.0
   180     C 0.237 0.371 0.386  0.04 -99.0  1.23  0.05  45.2  53.5   0.0 -99.0   7.9   6.5  34.8 -99.0
@  SLB  SLPX  SLPT  SLPO CACO3  SLAL  SLFE  SLMN  SLBS  SLPA  SLPB  SLKE  SLMG  SLNA  SLSU  SLEC  SLCA
    15 -99.0 -99.0 -99.0 -99.0 -99.0 -99.0 -99.0 -99.0 -99.0 -99.0 -99.0 -99.0 -99.0 -99.0 -99.0 -99.0
    30 -99.0 -99.0 -99.0 -99.0 -99.0 -99.0 -99.0 -99.0 -99.0 -99.0 -99.0 -99.0 -99.0 -99.0 -99.0 -99.0
    45 -99.0 -99.0 -99.0 -99.0 -99.0 -99.0 -99.0 -99.0 -99.0 -99.0 -99.0 -99.0 -99.0 -99.0 -99.0 -99.0
    60 -99.0 -99.0 -99.0 -99.0 -99.0 -99.0 -99.0 -99.0 -99.0 -99.0 -99.0 -99.0 -99.0 -99.0 -99.0 -99.0
    90 -99.0 -99.0 -99.0 -99.0 -99.0 -99.0 -99.0 -99.0 -99.0 -99.0 -99.0 -99.0 -99.0 -99.0 -99.0 -99.0
   105 -99.0 -99.0 -99.0 -99.0 -99.0 -99.0 -99.0 -99.0 -99.0 -99.0 -99.0 -99.0 -99.0 -99.0 -99.0 -99.0
   120 -99.0 -99.0 -99.0 -99.0 -99.0 -99.0 -99.0 -99.0 -99.0 -99.0 -99.0 -99.0 -99.0 -99.0 -99.0 -99.0
   150 -99.0 -99.0 -99.0 -99.0 -99.0 -99.0 -99.0 -99.0 -99.0 -99.0 -99.0 -99.0 -99.0 -99.0 -99.0 -99.0
   180 -99.0 -99.0 -99.0 -99.0 -99.0 -99.0 -99.0 -99.0 -99.0 -99.0 -99.0 -99.0 -99.0 -99.0 -99.0 -99.0

*GU00000003  SCS         CLOSA   127 ARROYO ANIMAL Pendiente 1-3%                      
@SITE        COUNTRY          LAT     LONG SCS FAMILY
 ENTRE_RIOS  ARGENTINA     30.000   62.000 ARGIUDOL ACUICO                                   
@ SCOM  SALB  SLU1  SLDR  SLRO  SLNF  SLPF  SMHB  SMPX  SMKE
    BN  0.13    10  0.40    84  0.60  1.00 IB001 IB001 IB001
@  SLB  SLMH  SLLL  SDUL  SSAT  SRGF  SSKS  SBDM  SLOC  SLCL  SLSI  SLCF  SLNI  SLHW  SLHB  SCEC  SADC
    15    A1 0.150 0.291 0.396  1.00 -99.0  1.20  1.80  25.6  65.4   0.0 -99.0   5.7   5.0   0.6 -99.0
    30    A2 0.164 0.303 0.396  0.60 -99.0  1.20  1.10  28.9  62.4   0.0 -99.0   5.8   5.1   0.6 -99.0
    45    B2 0.231 0.364 0.393  0.16 -99.0  1.21  0.60  43.8  49.8   0.0 -99.0   6.1   5.4   0.6 -99.0
    70    B2 0.209 0.344 0.394  0.28 -99.0  1.20  0.20  38.9  53.8   0.0 -99.0   6.5   5.6   0.3 -99.0
    90    B3 0.190 0.327 0.395  0.20 -99.0  1.20  0.05  34.6  57.4   0.0 -99.0   6.6   5.8   0.2 -99.0
   120     C 0.172 0.311 0.393  0.20 -99.0  1.20  0.05  30.6  62.7   0.0 -99.0   7.8   6.9   0.7 -99.0
   150     C 0.172 0.311 0.393  0.15 -99.0  1.20  0.05  30.6  62.7   0.0 -99.0   7.8   6.9   0.7 -99.0
   180     C 0.172 0.311 0.393  0.10 -99.0  1.20  0.05  30.6  62.7   0.0 -99.0   7.8   6.9   0.7 -99.0
@  SLB  SLPX  SLPT  SLPO CACO3  SLAL  SLFE  SLMN  SLBS  SLPA  SLPB  SLKE  SLMG  SLNA  SLSU  SLEC  SLCA
    15 -99.0 -99.0 -99.0 -99.0 -99.0 -99.0 -99.0 -99.0 -99.0 -99.0 -99.0 -99.0 -99.0 -99.0 -99.0 -99.0
    30 -99.0 -99.0 -99.0 -99.0 -99.0 -99.0 -99.0 -99.0 -99.0 -99.0 -99.0 -99.0 -99.0 -99.0 -99.0 -99.0
    45 -99.0 -99.0 -99.0 -99.0 -99.0 -99.0 -99.0 -99.0 -99.0 -99.0 -99.0 -99.0 -99.0 -99.0 -99.0 -99.0
    70 -99.0 -99.0 -99.0 -99.0 -99.0 -99.0 -99.0 -99.0 -99.0 -99.0 -99.0 -99.0 -99.0 -99.0 -99.0 -99.0
    90 -99.0 -99.0 -99.0 -99.0 -99.0 -99.0 -99.0 -99.0 -99.0 -99.0 -99.0 -99.0 -99.0 -99.0 -99.0 -99.0
   120 -99.0 -99.0 -99.0 -99.0 -99.0 -99.0 -99.0 -99.0 -99.0 -99.0 -99.0 -99.0 -99.0 -99.0 -99.0 -99.0
   150 -99.0 -99.0 -99.0 -99.0 -99.0 -99.0 -99.0 -99.0 -99.0 -99.0 -99.0 -99.0 -99.0 -99.0 -99.0 -99.0
   180 -99.0 -99.0 -99.0 -99.0 -99.0 -99.0 -99.0 -99.0 -99.0 -99.0 -99.0 -99.0 -99.0 -99.0 -99.0 -99.0

*GU00000004  SCS         CLOSA   120 ALDEA ASUNCION Pendiente 1-3%                     
@SITE        COUNTRY          LAT     LONG SCS FAMILY
 ENTRE_RIOS  ARGENTINA     30.000   62.000 HAPLUDOL FLUVENTICO                               
@ SCOM  SALB  SLU1  SLDR  SLRO  SLNF  SLPF  SMHB  SMPX  SMKE
    BN  0.13     9  0.20    82  0.60  1.00 IB001 IB001 IB001
@  SLB  SLMH  SLLL  SDUL  SSAT  SRGF  SSKS  SBDM  SLOC  SLCL  SLSI  SLCF  SLNI  SLHW  SLHB  SCEC  SADC
    30    A1 0.097 0.219 0.341  1.00 -99.0  1.35  1.20  13.7  28.7   0.0 -99.0   5.7   5.0  15.8 -99.0
    45    B1 0.116 0.238 0.347  0.80 -99.0  1.33  0.90  18.1  28.0   0.0 -99.0   5.5   4.9  19.5 -99.0
    60    BT 0.152 0.274 0.358  0.40 -99.0  1.31  0.70  26.1  28.2   0.0 -99.0   5.8   5.1  22.3 -99.0
    90    BT 0.179 0.304 0.372  0.30 -99.0  1.27  0.25  32.2  33.7   0.0 -99.0   6.1   5.3  27.9 -99.0
   105    B3 0.154 0.282 0.380  0.10 -99.0  1.25  0.15  26.6  40.3   0.0 -99.0   7.8   6.9  23.2 -99.0
   120     C 0.152 0.277 0.369  0.08 -99.0  1.27  0.10  26.0  35.0   0.0 -99.0   7.9   7.0  22.9 -99.0
   150     C 0.152 0.277 0.369  0.06 -99.0  1.27  0.05  26.0  35.0   0.0 -99.0   7.9   7.0  22.9 -99.0
   180     C 0.152 0.277 0.369  0.04 -99.0  1.27  0.05  26.0  35.0   0.0 -99.0   7.9   7.0  22.9 -99.0
@  SLB  SLPX  SLPT  SLPO CACO3  SLAL  SLFE  SLMN  SLBS  SLPA  SLPB  SLKE  SLMG  SLNA  SLSU  SLEC  SLCA
    30 -99.0 -99.0 -99.0 -99.0 -99.0 -99.0 -99.0 -99.0 -99.0 -99.0 -99.0 -99.0 -99.0 -99.0 -99.0 -99.0
    45 -99.0 -99.0 -99.0 -99.0 -99.0 -99.0 -99.0 -99.0 -99.0 -99.0 -99.0 -99.0 -99.0 -99.0 -99.0 -99.0
    60 -99.0 -99.0 -99.0 -99.0 -99.0 -99.0 -99.0 -99.0 -99.0 -99.0 -99.0 -99.0 -99.0 -99.0 -99.0 -99.0
    90 -99.0 -99.0 -99.0 -99.0 -99.0 -99.0 -99.0 -99.0 -99.0 -99.0 -99.0 -99.0 -99.0 -99.0 -99.0 -99.0
   105 -99.0 -99.0 -99.0 -99.0 -99.0 -99.0 -99.0 -99.0 -99.0 -99.0 -99.0 -99.0 -99.0 -99.0 -99.0 -99.0
   120 -99.0 -99.0 -99.0 -99.0 -99.0 -99.0 -99.0 -99.0 -99.0 -99.0 -99.0 -99.0 -99.0 -99.0 -99.0 -99.0
   150 -99.0 -99.0 -99.0 -99.0 -99.0 -99.0 -99.0 -99.0 -99.0 -99.0 -99.0 -99.0 -99.0 -99.0 -99.0 -99.0
   180 -99.0 -99.0 -99.0 -99.0 -99.0 -99.0 -99.0 -99.0 -99.0 -99.0 -99.0 -99.0 -99.0 -99.0 -99.0 -99.0


!Suelos Junin (loc_4)

*JU00000001  SCS         -99     -99 SAFORCADA 0.5 C.ORGANICO                          
@SITE        COUNTRY          LAT     LONG SCS FAMILY
 SAFORCADA   ARGENTINA     34.500   61.000 HAPLUDOL ENTIC                                    
@ SCOM  SALB  SLU1  SLDR  SLRO  SLNF  SLPF  SMHB  SMPX  SMKE
    BN  0.13     8  0.80    71  2.00  1.00 IB001 IB001 IB001
@  SLB  SLMH  SLLL  SDUL  SSAT  SRGF  SSKS  SBDM  SLOC  SLCL  SLSI  SLCF  SLNI  SLHW  SLHB  SCEC  SADC
    15     A 0.050 0.161 0.333  1.00 -99.0  1.37  0.70   8.5   9.5   0.0 -99.0   6.1 -99.0 -99.0 -99.0
    30     A 0.052 0.166 0.336  1.00 -99.0  1.36  0.60   9.5   9.5   0.0 -99.0   6.7 -99.0 -99.0 -99.0
    45     A 0.052 0.166 0.336  0.80 -99.0  1.36  0.20   9.5   9.5   0.0 -99.0   6.7 -99.0 -99.0 -99.0
    60    AC 0.049 0.155 0.335  0.60 -99.0  1.37  0.10   9.0   8.0   0.0 -99.0   6.7 -99.0 -99.0 -99.0
    75    AC 0.049 0.155 0.335  0.50 -99.0  1.37  0.05   9.0   8.0   0.0 -99.0   6.7 -99.0 -99.0 -99.0
    90     C 0.044 0.142 0.331  0.50 -99.0  1.38  0.05   8.0   6.5   0.0 -99.0   7.5 -99.0 -99.0 -99.0
   120     C 0.044 0.142 0.331  0.40 -99.0  1.38  0.05   8.0   6.5   0.0 -99.0   7.5 -99.0 -99.0 -99.0
   150     C 0.044 0.142 0.331  0.30 -99.0  1.38  0.05   8.0   6.5   0.0 -99.0   7.5 -99.0 -99.0 -99.0
   180     C 0.044 0.142 0.331  0.20 -99.0  1.38  0.05   8.0   6.5   0.0 -99.0   7.5 -99.0 -99.0 -99.0
@  SLB  SLPX  SLPT  SLPO CACO3  SLAL  SLFE  SLMN  SLBS  SLPA  SLPB  SLKE  SLMG  SLNA  SLSU  SLEC  SLCA
    15 -99.0 -99.0 -99.0 -99.0 -99.0 -99.0 -99.0 -99.0 -99.0 -99.0 -99.0 -99.0 -99.0 -99.0 -99.0 -99.0
    30 -99.0 -99.0 -99.0 -99.0 -99.0 -99.0 -99.0 -99.0 -99.0 -99.0 -99.0 -99.0 -99.0 -99.0 -99.0 -99.0
    45 -99.0 -99.0 -99.0 -99.0 -99.0 -99.0 -99.0 -99.0 -99.0 -99.0 -99.0 -99.0 -99.0 -99.0 -99.0 -99.0
    60 -99.0 -99.0 -99.0 -99.0 -99.0 -99.0 -99.0 -99.0 -99.0 -99.0 -99.0 -99.0 -99.0 -99.0 -99.0 -99.0
    75 -99.0 -99.0 -99.0 -99.0 -99.0 -99.0 -99.0 -99.0 -99.0 -99.0 -99.0 -99.0 -99.0 -99.0 -99.0 -99.0
    90 -99.0 -99.0 -99.0 -99.0 -99.0 -99.0 -99.0 -99.0 -99.0 -99.0 -99.0 -99.0 -99.0 -99.0 -99.0 -99.0
   120 -99.0 -99.0 -99.0 -99.0 -99.0 -99.0 -99.0 -99.0 -99.0 -99.0 -99.0 -99.0 -99.0 -99.0 -99.0 -99.0
   150 -99.0 -99.0 -99.0 -99.0 -99.0 -99.0 -99.0 -99.0 -99.0 -99.0 -99.0 -99.0 -99.0 -99.0 -99.0 -99.0
   180 -99.0 -99.0 -99.0 -99.0 -99.0 -99.0 -99.0 -99.0 -99.0 -99.0 -99.0 -99.0 -99.0 -99.0 -99.0 -99.0

*JU00000002  SCS         CLOSA   -99 ISABEL                                            
@SITE        COUNTRY          LAT     LONG SCS FAMILY
 STA.ISABEL  ARGENTINA     34.000   61.000 HAPLUDOL TIPICO                                   
@ SCOM  SALB  SLU1  SLDR  SLRO  SLNF  SLPF  SMHB  SMPX  SMKE
    BN  0.13     9  0.60    76  2.00  1.00 IB001 IB001 IB001
@  SLB  SLMH  SLLL  SDUL  SSAT  SRGF  SSKS  SBDM  SLOC  SLCL  SLSI  SLCF  SLNI  SLHW  SLHB  SCEC  SADC
    20    AP 0.107 0.237 0.373  1.00 -99.0  1.27  1.10  16.0  43.1   0.0  0.10   6.6   5.9  15.0 -99.0
    30    A1 0.142 0.270 0.374  1.00 -99.0  1.26  0.80  23.9  39.0   0.0  0.06   6.9   6.1  18.8 -99.0
    36    A1 0.142 0.270 0.374  0.50 -99.0  1.26  0.70  23.9  39.0   0.0  0.06   6.9   6.1  18.8 -99.0
    45    B2 0.132 0.260 0.373  0.80 -99.0  1.27  0.30  21.7  39.5   0.0  0.07   7.0   6.2  16.5 -99.0
    67    B2 0.132 0.260 0.373  0.50 -99.0  1.27  0.15  21.7  39.5   0.0  0.07   7.0   6.2  16.5 -99.0
    90    B3 0.111 0.240 0.374  0.50 -99.0  1.26  0.10  16.8  43.0   0.0  0.04   7.6   6.7  16.1 -99.0
   100    B3 0.111 0.240 0.374  0.40 -99.0  1.26  0.10  16.8  43.0   0.0  0.04   7.6   6.7  16.1 -99.0
   120     C 0.106 0.235 0.370  0.40 -99.0  1.28  0.05  15.8  42.0   0.0  0.04   8.0   7.0  13.9 -99.0
   150     C 0.106 0.235 0.370  0.30 -99.0  1.28  0.05  15.8  42.0   0.0  0.04   8.0   7.0  13.9 -99.0
   180     C 0.106 0.235 0.370  0.20 -99.0  1.28  0.05  15.8  42.0   0.0  0.04   8.0   7.0  13.9 -99.0
@  SLB  SLPX  SLPT  SLPO CACO3  SLAL  SLFE  SLMN  SLBS  SLPA  SLPB  SLKE  SLMG  SLNA  SLSU  SLEC  SLCA
    20 -99.0 -99.0 -99.0 -99.0 -99.0 -99.0 -99.0 -99.0 -99.0 -99.0 -99.0 -99.0 -99.0 -99.0 -99.0 -99.0
    30 -99.0 -99.0 -99.0 -99.0 -99.0 -99.0 -99.0 -99.0 -99.0 -99.0 -99.0 -99.0 -99.0 -99.0 -99.0 -99.0
    36 -99.0 -99.0 -99.0 -99.0 -99.0 -99.0 -99.0 -99.0 -99.0 -99.0 -99.0 -99.0 -99.0 -99.0 -99.0 -99.0
    45 -99.0 -99.0 -99.0 -99.0 -99.0 -99.0 -99.0 -99.0 -99.0 -99.0 -99.0 -99.0 -99.0 -99.0 -99.0 -99.0
    67 -99.0 -99.0 -99.0 -99.0 -99.0 -99.0 -99.0 -99.0 -99.0 -99.0 -99.0 -99.0 -99.0 -99.0 -99.0 -99.0
    90 -99.0 -99.0 -99.0 -99.0 -99.0 -99.0 -99.0 -99.0 -99.0 -99.0 -99.0 -99.0 -99.0 -99.0 -99.0 -99.0
   100 -99.0 -99.0 -99.0 -99.0 -99.0 -99.0 -99.0 -99.0 -99.0 -99.0 -99.0 -99.0 -99.0 -99.0 -99.0 -99.0
   120 -99.0 -99.0 -99.0 -99.0 -99.0 -99.0 -99.0 -99.0 -99.0 -99.0 -99.0 -99.0 -99.0 -99.0 -99.0 -99.0
   150 -99.0 -99.0 -99.0 -99.0 -99.0 -99.0 -99.0 -99.0 -99.0 -99.0 -99.0 -99.0 -99.0 -99.0 -99.0 -99.0
   180 -99.0 -99.0 -99.0 -99.0 -99.0 -99.0 -99.0 -99.0 -99.0 -99.0 -99.0 -99.0 -99.0 -99.0 -99.0 -99.0

*JU00000003  SCS         CLOSA   -99 DE ROSAS                                          
@SITE        COUNTRY          LAT     LONG SCS FAMILY
 O.ROSAS     ARGENTINA     34.000   61.000 HAPLUDOL THAPTO ARGICO                            
@ SCOM  SALB  SLU1  SLDR  SLRO  SLNF  SLPF  SMHB  SMPX  SMKE
    BN  0.13     9  0.40    79  2.00  1.00 IB001 IB001 IB001
@  SLB  SLMH  SLLL  SDUL  SSAT  SRGF  SSKS  SBDM  SLOC  SLCL  SLSI  SLCF  SLNI  SLHW  SLHB  SCEC  SADC
    23    AP 0.102 0.228 0.357  1.00 -99.0  1.31  1.25  14.9  35.9   0.0 -99.0   6.0   5.8  15.7 -99.0
    35    A1 0.113 0.239 0.362  1.00 -99.0  1.29  1.00  17.3  36.8   0.0 -99.0   6.2   5.9  15.7 -99.0
    55    AC 0.095 0.218 0.342  0.70 -99.0  1.34  0.25  13.3  29.4   0.0 -99.0   6.6   6.3   9.5 -99.0
    73    B2 0.167 0.287 0.354  0.30 -99.0  1.32  0.20  29.5  23.3   0.0 -99.0   6.8   6.3  19.5 -99.0
   110    B3 0.148 0.266 0.346  0.20 -99.0  1.33  0.10  25.1  21.2   0.0 -99.0   7.6   7.2  17.7 -99.0
   120    CC 0.129 0.253 0.358  0.20 -99.0  1.30  0.05  21.0  31.8   0.0 -99.0   8.5   7.8  19.3 -99.0
   150    CC 0.129 0.253 0.358  0.20 -99.0  1.30  0.05  21.0  31.8   0.0 -99.0   8.5   7.8  19.3 -99.0
   180    CC 0.129 0.253 0.358  0.20 -99.0  1.30  0.05  21.0  31.8   0.0 -99.0   8.5   7.8  19.3 -99.0
@  SLB  SLPX  SLPT  SLPO CACO3  SLAL  SLFE  SLMN  SLBS  SLPA  SLPB  SLKE  SLMG  SLNA  SLSU  SLEC  SLCA
    23 -99.0 -99.0 -99.0 -99.0 -99.0 -99.0 -99.0 -99.0 -99.0 -99.0 -99.0 -99.0 -99.0 -99.0 -99.0 -99.0
    35 -99.0 -99.0 -99.0 -99.0 -99.0 -99.0 -99.0 -99.0 -99.0 -99.0 -99.0 -99.0 -99.0 -99.0 -99.0 -99.0
    55 -99.0 -99.0 -99.0 -99.0 -99.0 -99.0 -99.0 -99.0 -99.0 -99.0 -99.0 -99.0 -99.0 -99.0 -99.0 -99.0
    73 -99.0 -99.0 -99.0 -99.0 -99.0 -99.0 -99.0 -99.0 -99.0 -99.0 -99.0 -99.0 -99.0 -99.0 -99.0 -99.0
   110 -99.0 -99.0 -99.0 -99.0 -99.0 -99.0 -99.0 -99.0 -99.0 -99.0 -99.0 -99.0 -99.0 -99.0 -99.0 -99.0
   120 -99.0 -99.0 -99.0 -99.0 -99.0 -99.0 -99.0 -99.0 -99.0 -99.0 -99.0 -99.0 -99.0 -99.0 -99.0 -99.0
   150 -99.0 -99.0 -99.0 -99.0 -99.0 -99.0 -99.0 -99.0 -99.0 -99.0 -99.0 -99.0 -99.0 -99.0 -99.0 -99.0
   180 -99.0 -99.0 -99.0 -99.0 -99.0 -99.0 -99.0 -99.0 -99.0 -99.0 -99.0 -99.0 -99.0 -99.0 -99.0 -99.0

*JU00000004  SCS         CLOSA   -99                                                   
@SITE        COUNTRY          LAT     LONG SCS FAMILY
 CEREALES    ARGENTINA     34.000   61.250 ARGIUDOL TIPICO                                   
@ SCOM  SALB  SLU1  SLDR  SLRO  SLNF  SLPF  SMHB  SMPX  SMKE
    BN  0.13    10  0.50    77  2.00  1.00 IB001 IB001 IB001
@  SLB  SLMH  SLLL  SDUL  SSAT  SRGF  SSKS  SBDM  SLOC  SLCL  SLSI  SLCF  SLNI  SLHW  SLHB  SCEC  SADC